
 Fire Dynamics Simulator

 Current Date     : August  3, 2024  17:59:56
 Revision         : FDS-6.9.1-241-geb36e1e-master
 Revision Date    : Thu May 16 17:19:36 2024 -0400
 Compiler         : Intel(R) Fortran Compiler for applications running on Intel(R) 64, Version 2024.1.2 Build 20240508
 Compilation Date : may 27, 2024 14:47:47

 Number of MPI Processes:  4
 Number of OpenMP Threads: 1

 MPI version: 3.1
 MPI library version: Intel(R) MPI Library 2021.12 for Linux* OS


 Job TITLE        : 
 Job ID string    : fdsreader_slcfs


 Grid Dimensions, Mesh     1

   Cells in the X Direction            10
   Cells in the Y Direction            10
   Cells in the Z Direction            10
   Number of Grid Cells              1000


 Physical Dimensions, Mesh     1

   Length (m)                       1.000
   Width  (m)                       1.000
   Height (m)                       1.000

 Grid Dimensions, Mesh     2

   Cells in the X Direction            10
   Cells in the Y Direction            10
   Cells in the Z Direction            10
   Number of Grid Cells              1000


 Physical Dimensions, Mesh     2

   Length (m)                       1.000
   Width  (m)                       1.000
   Height (m)                       1.000

 Grid Dimensions, Mesh     3

   Cells in the X Direction            20
   Cells in the Y Direction            10
   Cells in the Z Direction            10
   Number of Grid Cells              2000


 Physical Dimensions, Mesh     3

   Length (m)                       2.000
   Width  (m)                       1.000
   Height (m)                       1.000

 Grid Dimensions, Mesh     4

   Cells in the X Direction            20
   Cells in the Y Direction            10
   Cells in the Z Direction            10
   Number of Grid Cells              2000


 Physical Dimensions, Mesh     4

   Length (m)                       2.000
   Width  (m)                       1.000
   Height (m)                       1.000

 Miscellaneous Parameters

   Total Number of Grid Cells        6000
   Maximum Cell Aspect Ratio        1.000
   Initial Time Step (s)            0.160
   CFL Velocity Norm                    2
   Simulation Start Time (s)          0.0
   Simulation End Time (s)          120.0
   Background Pressure (Pa)     101325.00
   Ambient Temperature (C)          20.00

   3D Cartesian
   VLES Calculation
   Eddy Viscosity Model:  Deardorff (C_DEARDORFF = 0.10)
   Surface INERT Eddy Viscosity Model:  WALE (C_WALE = 0.60)
   Surface fire Eddy Viscosity Model:  WALE (C_WALE = 0.60)
   Turbulent Prandtl Number:         0.50
   Turbulent Schmidt Number:         0.50


 Pressure solver information

   Solver:                            FFT
   Velocity tolerance (m/s):    5.000E-02
   Press eqn res tol (1/s^2):   2.000E+03
   Max pressure iterations:            10


 Background Stratification

      Z (m)     P_0 (Pa)    TMP_0 (C)
   ------------------------------------
        0.95    101313.86     20.00
        0.85    101315.03     20.00
        0.75    101316.21     20.00
        0.65    101317.38     20.00
        0.55    101318.55     20.00
        0.45    101319.72     20.00
        0.35    101320.90     20.00
        0.25    101322.07     20.00
        0.15    101323.24     20.00
        0.05    101324.41     20.00


 Mass Fraction Transformation Matrix to Convert Species Mixtures (Columns) to Primitive Species (Rows)

                         AIR       METHANE   PRODUCTS
   NITROGEN              0.762470  0.000000  0.720736
   OXYGEN                0.230997  0.000000  0.000000
   CARBON DIOXIDE        0.000591  0.000000  0.150715
   WATER VAPOR           0.005941  0.000000  0.128549
   CARBON MONOXIDE       0.000000  0.000000  0.000000
   SOOT                  0.000000  0.000000  0.000000
   HYDROGEN              0.000000  0.000000  0.000000
   HYDROGEN CYANIDE      0.000000  0.000000  0.000000
   METHANE               0.000000  1.000000  0.000000


 Primitive Species Information

   NITROGEN
   Gas Species
   Molecular Weight (g/mol)                28.01340
   Ambient Density (kg/m^3)                1.165
           Enthalpy of Formation (J/kg)  0.000E+00

   OXYGEN
   Gas Species
   Molecular Weight (g/mol)                31.99880
   Ambient Density (kg/m^3)                1.330
           Enthalpy of Formation (J/kg)  0.000E+00

   CARBON DIOXIDE
   Gas Species
   Molecular Weight (g/mol)                44.00950
   Ambient Density (kg/m^3)                1.830
           Enthalpy of Formation (J/kg) -8.941E+06

   WATER VAPOR
   Gas Species
   Molecular Weight (g/mol)                18.01528
   Ambient Density (kg/m^3)                0.749
           Enthalpy of Formation (J/kg) -1.342E+07

   CARBON MONOXIDE
   Gas Species
   Molecular Weight (g/mol)                28.01010
   Ambient Density (kg/m^3)                1.164
           Enthalpy of Formation (J/kg) -3.946E+06

   SOOT
   Gas Species
   Molecular Weight (g/mol)                12.01070
   Ambient Density (kg/m^3)                0.499
           Enthalpy of Formation (J/kg)  0.000E+00

   HYDROGEN
   Gas Species
   Molecular Weight (g/mol)                 2.01588
   Ambient Density (kg/m^3)                0.084
           Enthalpy of Formation (J/kg)  0.000E+00

   HYDROGEN CYANIDE
   Gas Species
   Molecular Weight (g/mol)                27.02534
   Ambient Density (kg/m^3)                1.123
           Enthalpy of Formation (J/kg)  4.924E+06

   METHANE
   Gas Species
   Molecular Weight (g/mol)                16.04246
   Ambient Density (kg/m^3)                0.667
           Enthalpy of Formation (J/kg) -4.650E+06


 Tracked (Lumped) Species Information

   AIR
   Molecular Weight (g/mol)            28.75198
   Ambient Density (kg/m^3)            1.195
   Initial Mass Fraction               1.000
   Enthalpy of Formation (J/kg)     -8.504E+04

   Sub Species                    Mass Fraction     Mole Fraction
   NITROGEN                       7.624699E-01      7.825727E-01
   OXYGEN                         2.309974E-01      2.075588E-01
   CARBON DIOXIDE                 5.914650E-04      3.864118E-04
   WATER VAPOR                    5.941209E-03      9.482037E-03
 
     Viscosity (kg/m/s) Ambient,  293 K:  1.796E-05
                                  500 K:  2.612E-05
                                 1000 K:  4.125E-05
                                 1500 K:  5.371E-05
                                 2000 K:  6.476E-05
   Therm. Cond. (W/m/K) Ambient,  293 K:  2.556E-02
                                  500 K:  3.814E-02
                                 1000 K:  6.686E-02
                                 1500 K:  9.249E-02
                                 2000 K:  1.153E-01
        Enthalpy (J/kg) Ambient,  293 K: -9.012E+04
                                  500 K:  1.222E+05
                                 1000 K:  6.721E+05
                                 1500 K:  1.270E+06
                                 2000 K:  1.896E+06
    Spec. Heat (J/kg/K) Ambient,  293 K:  1.016E+03
                                  500 K:  1.042E+03
                                 1000 K:  1.156E+03
                                 1500 K:  1.229E+03
                                 2000 K:  1.270E+03
   Diff. Coeff. (m^2/s) Ambient,  293 K:  1.991E-05
                                  500 K:  4.961E-05
                                 1000 K:  1.580E-04
                                 1500 K:  3.095E-04
                                 2000 K:  4.984E-04
 Gibbs Energy Amb. (kJ/mol),  293 K: -5.873E+01
                                  500 K: -1.007E+02
                                 1000 K: -2.117E+02
                                 1500 K: -3.312E+02
                                 2000 K: -4.568E+02

   METHANE
   Molecular Weight (g/mol)            16.04246
   Ambient Density (kg/m^3)            0.667
   Initial Mass Fraction               0.000
   Enthalpy of Formation (J/kg)     -4.650E+06

   Sub Species                    Mass Fraction     Mole Fraction
   METHANE                        1.000000E+00      1.000000E+00
 
     Viscosity (kg/m/s) Ambient,  293 K:  1.096E-05
                                  500 K:  1.677E-05
                                 1000 K:  2.728E-05
                                 1500 K:  3.559E-05
                                 2000 K:  4.290E-05
   Therm. Cond. (W/m/K) Ambient,  293 K:  3.466E-02
                                  500 K:  6.958E-02
                                 1000 K:  1.790E-01
                                 1500 K:  2.880E-01
                                 2000 K:  3.876E-01
        Enthalpy (J/kg) Ambient,  293 K: -4.661E+06
                                  500 K: -4.137E+06
                                 1000 K: -2.239E+06
                                 1500 K:  3.482E+05
                                 2000 K:  3.357E+06
    Spec. Heat (J/kg/K) Ambient,  293 K:  2.213E+03
                                  500 K:  2.904E+03
                                 1000 K:  4.593E+03
                                 1500 K:  5.664E+03
                                 2000 K:  6.323E+03
   Diff. Coeff. (m^2/s) Ambient,  293 K:  2.147E-05
                                  500 K:  5.438E-05
                                 1000 K:  1.750E-04
                                 1500 K:  3.433E-04
                                 2000 K:  5.530E-04
 Gibbs Energy Amb. (kJ/mol),  293 K: -1.292E+02
                                  500 K: -1.700E+02
                                 1000 K: -2.842E+02
                                 1500 K: -4.170E+02
                                 2000 K: -5.650E+02

   PRODUCTS
   Molecular Weight (g/mol)            27.55701
   Ambient Density (kg/m^3)            1.146
   Initial Mass Fraction               0.000
   Enthalpy of Formation (J/kg)     -3.073E+06

   Sub Species                    Mass Fraction     Mole Fraction
   NITROGEN                       7.207359E-01      7.089938E-01
   CARBON DIOXIDE                 1.507153E-01      9.437196E-02
   WATER VAPOR                    1.285488E-01      1.966343E-01
   CARBON MONOXIDE                0.000000E+00      0.000000E+00
   SOOT                           0.000000E+00      0.000000E+00
   HYDROGEN CYANIDE               0.000000E+00      0.000000E+00
 
     Viscosity (kg/m/s) Ambient,  293 K:  1.599E-05
                                  500 K:  2.373E-05
                                 1000 K:  3.886E-05
                                 1500 K:  5.148E-05
                                 2000 K:  6.260E-05
   Therm. Cond. (W/m/K) Ambient,  293 K:  2.347E-02
                                  500 K:  3.624E-02
                                 1000 K:  6.760E-02
                                 1500 K:  9.758E-02
                                 2000 K:  1.246E-01
        Enthalpy (J/kg) Ambient,  293 K: -3.079E+06
                                  500 K: -2.843E+06
                                 1000 K: -2.221E+06
                                 1500 K: -1.530E+06
                                 2000 K: -7.946E+05
    Spec. Heat (J/kg/K) Ambient,  293 K:  1.115E+03
                                  500 K:  1.165E+03
                                 1000 K:  1.322E+03
                                 1500 K:  1.434E+03
                                 2000 K:  1.501E+03
   Diff. Coeff. (m^2/s) Ambient,  293 K:  1.963E-05
                                  500 K:  5.001E-05
                                 1000 K:  1.619E-04
                                 1500 K:  3.186E-04
                                 2000 K:  5.141E-04
 Gibbs Energy Amb. (kJ/mol),  293 K: -1.474E+02
                                  500 K: -1.895E+02
                                 1000 K: -3.015E+02
                                 1500 K: -4.231E+02
                                 2000 K: -5.515E+02


 Gas Phase Reaction Information

   Solver Details:  

      ODE Solver:  EXPLICIT EULER

      Fuel                                           Heat of Combustion (kJ/kg)
      METHANE                                                        50027.3649
      EPUMO2:                                                        12540.5015

      Primitive Species Stoich. Coeff.
      Species ID                                                          Molar
      OXYGEN                                                          -2.000000
      CARBON DIOXIDE                                                   1.000000
      WATER VAPOR                                                      2.000000
      METHANE                                                         -1.000000

      Tracked (Lumped) Species Stoich. Coeff.
      Species ID                                             Molar         Mass
      AIR                                                -9.635823   -17.269734
      METHANE                                            -1.000000    -1.000000
      PRODUCTS                                           10.635823    18.269734

      Reaction Kinetics

      Fast chemistry

      Extinction Model:  EXTINCTION 1
      Auto-Ignition Temperature (C):            -273.1
      Critical Flame Temperature (C):           1507.0

      Prescribed Radiative Fraction:             0.200


 Material Information


 Surface Conditions

   0 INERT (DEFAULT)

   1 fire
     HRR Per Unit Area (kW/m2)        300.0
     METHANE Mass Flux (kg/s/m2)   5.997E-03

   2 OPEN
     Passive Vent to Atmosphere

   3 MIRROR
     Symmetry Plane

   4 INTERPOLATED

   5 PERIODIC

   6 HVAC

   7 MASSLESS TRACER

   8 DROPLET

   9 MASSLESS TARGET

  10 PERIODIC FLOW ONLY


 Lagrangian Particle Classes


 Cut-off Density and Temperature

    Minimum Temperature:  -259.1 C
    Maximum Temperature:  2726.8 C
    Minimum Density:  1.195E-01 kg/m3
    Maximum Density:  5.006E+01 kg/m3


 Slice File Information, Mesh     1

   1 Nodes:   0  10   0  10   5   5, Quantity: TEMPERATURE
   2 Nodes:   0  10   0  10   6   6, Quantity: TEMPERATURE


 Radiation Model Information

   Number of control angles  104
   Time step increment         3
   Angle increment             5
   Theta band N_phi   Solid angle
     1:        4     0.120
     2:       12     0.114
     3:       16     0.127
     4:       20     0.120
     5:       20     0.120
     6:       16     0.127
     7:       12     0.114
     8:        4     0.120
   Using gray gas absorption.
   Mean beam length  1.000E-01 m
 
 

 Run Time Diagnostics

       Time Step        1   August  3, 2024  17:59:56
       Step Size:    0.160E+00 s, Total Time:       0.16 s
       Pressure Iterations: 1
       Maximum Velocity Error:  0.17E-03 on Mesh 3 at (8,0,3)
       Maximum Pressure Error:  0.23E-04 on Mesh 1 at (7,7,1)
       ---------------------------------------------------------------
       Mesh    1
       Max CFL number:  0.35E-01 at (2,3,6)
       Max divergence:  0.21E-03 at (7,7,1)
       Min divergence: -0.97E-06 at (6,7,4)
       Max VN number:   0.22E-01 at (2,7,4)
       Mesh    2
       Max CFL number:  0.37E-01 at (2,6,3)
       Max divergence:  0.13E-05 at (7,2,2)
       Min divergence: -0.11E-05 at (8,3,7)
       Max VN number:   0.26E-01 at (6,8,1)
       Mesh    3
       Max CFL number:  0.36E-01 at (5,1,7)
       Max divergence:  0.13E-05 at (15,2,2)
       Min divergence: -0.98E-06 at (18,5,7)
       Max VN number:   0.26E-01 at (19,10,1)
       Mesh    4
       Max CFL number:  0.39E-01 at (7,7,8)
       Max divergence:  0.14E-05 at (8,4,2)
       Min divergence: -0.11E-05 at (18,7,6)
       Max VN number:   0.29E-01 at (16,9,1)
 
       Time Step        2   August  3, 2024  17:59:56
       Step Size:    0.160E+00 s, Total Time:       0.32 s
       Pressure Iterations: 1
       Maximum Velocity Error:  0.13E-03 on Mesh 1 at (7,10,2)
       Maximum Pressure Error:  0.88E-02 on Mesh 1 at (7,7,1)
       ---------------------------------------------------------------
       Mesh    1
       Max CFL number:  0.35E-01 at (2,3,6)
       Max divergence:  0.45E-01 at (7,7,1)
       Min divergence: -0.97E-06 at (6,7,4)
       Max VN number:   0.22E-01 at (2,7,4)
       Total Heat Release Rate:              0.016 kW
       Mesh    2
       Max CFL number:  0.37E-01 at (2,6,3)
       Max divergence:  0.13E-05 at (7,2,2)
       Min divergence: -0.11E-05 at (8,3,7)
       Max VN number:   0.26E-01 at (6,8,1)
       Mesh    3
       Max CFL number:  0.35E-01 at (5,1,7)
       Max divergence:  0.13E-05 at (15,2,2)
       Min divergence: -0.99E-06 at (18,5,7)
       Max VN number:   0.26E-01 at (19,10,1)
       Mesh    4
       Max CFL number:  0.39E-01 at (7,7,8)
       Max divergence:  0.14E-05 at (8,4,2)
       Min divergence: -0.11E-05 at (18,7,6)
       Max VN number:   0.30E-01 at (16,9,1)
 
       Time Step        3   August  3, 2024  17:59:57
       Step Size:    0.160E+00 s, Total Time:       0.48 s
       Pressure Iterations: 1
       Maximum Velocity Error:  0.13E-03 on Mesh 1 at (7,10,1)
       Maximum Pressure Error:  0.40E-02 on Mesh 1 at (7,7,1)
       ---------------------------------------------------------------
       Mesh    1
       Max CFL number:  0.35E-01 at (5,6,3)
       Max divergence:  0.89E-01 at (7,7,1)
       Min divergence: -0.97E-06 at (6,7,4)
       Max VN number:   0.22E-01 at (2,7,4)
       Total Heat Release Rate:              0.032 kW
       Mesh    2
       Max CFL number:  0.36E-01 at (2,6,3)
       Max divergence:  0.13E-05 at (7,2,2)
       Min divergence: -0.10E-05 at (8,3,7)
       Max VN number:   0.25E-01 at (6,8,1)
       Mesh    3
       Max CFL number:  0.35E-01 at (5,1,7)
       Max divergence:  0.13E-05 at (15,2,2)
       Min divergence: -0.99E-06 at (18,5,7)
       Max VN number:   0.26E-01 at (19,10,1)
       Mesh    4
       Max CFL number:  0.38E-01 at (7,7,8)
       Max divergence:  0.14E-05 at (8,4,2)
       Min divergence: -0.10E-05 at (18,7,6)
       Max VN number:   0.30E-01 at (16,9,1)
 
       Time Step        4   August  3, 2024  17:59:57
       Step Size:    0.160E+00 s, Total Time:       0.64 s
       Pressure Iterations: 1
       Maximum Velocity Error:  0.12E-03 on Mesh 1 at (10,7,3)
       Maximum Pressure Error:  0.19E-02 on Mesh 1 at (6,7,1)
       ---------------------------------------------------------------
       Mesh    1
       Max CFL number:  0.40E-01 at (7,7,1)
       Max divergence:  0.13E+00 at (7,7,1)
       Min divergence: -0.96E-06 at (6,7,4)
       Max VN number:   0.22E-01 at (9,1,1)
       Total Heat Release Rate:              0.048 kW
       Mesh    2
       Max CFL number:  0.36E-01 at (2,6,3)
       Max divergence:  0.13E-05 at (7,2,2)
       Min divergence: -0.11E-05 at (8,3,7)
       Max VN number:   0.25E-01 at (6,8,1)
       Mesh    3
       Max CFL number:  0.35E-01 at (5,1,7)
       Max divergence:  0.13E-05 at (15,2,2)
       Min divergence: -0.99E-06 at (18,5,7)
       Max VN number:   0.26E-01 at (19,10,1)
       Mesh    4
       Max CFL number:  0.38E-01 at (7,7,8)
       Max divergence:  0.14E-05 at (8,4,2)
       Min divergence: -0.10E-05 at (18,7,6)
       Max VN number:   0.30E-01 at (16,9,1)
 
       Time Step        5   August  3, 2024  17:59:57
       Step Size:    0.160E+00 s, Total Time:       0.80 s
       Pressure Iterations: 1
       Maximum Velocity Error:  0.12E-03 on Mesh 1 at (10,7,3)
       Maximum Pressure Error:  0.18E-01 on Mesh 1 at (7,7,1)
       ---------------------------------------------------------------
       Mesh    1
       Max CFL number:  0.68E-01 at (7,7,1)
       Max divergence:  0.17E+00 at (7,7,1)
       Min divergence: -0.95E-06 at (6,7,4)
       Max VN number:   0.22E-01 at (9,1,1)
       Total Heat Release Rate:              0.064 kW
       Mesh    2
       Max CFL number:  0.36E-01 at (2,6,3)
       Max divergence:  0.13E-05 at (7,2,2)
       Min divergence: -0.11E-05 at (8,3,7)
       Max VN number:   0.24E-01 at (6,8,1)
       Mesh    3
       Max CFL number:  0.34E-01 at (5,1,7)
       Max divergence:  0.13E-05 at (15,2,2)
       Min divergence: -0.10E-05 at (18,5,7)
       Max VN number:   0.26E-01 at (19,10,1)
       Mesh    4
       Max CFL number:  0.38E-01 at (7,7,8)
       Max divergence:  0.14E-05 at (8,4,2)
       Min divergence: -0.11E-05 at (18,7,6)
       Max VN number:   0.30E-01 at (16,9,1)
 
       Time Step        6   August  3, 2024  17:59:57
       Step Size:    0.160E+00 s, Total Time:       0.96 s
       Pressure Iterations: 1
       Maximum Velocity Error:  0.22E-03 on Mesh 1 at (7,10,1)
       Maximum Pressure Error:  0.78E-01 on Mesh 1 at (7,7,1)
       ---------------------------------------------------------------
       Mesh    1
       Max CFL number:  0.12E+00 at (7,7,1)
       Max divergence:  0.18E+00 at (7,7,1)
       Min divergence: -0.82E-06 at (10,9,7)
       Max VN number:   0.23E-01 at (7,7,2)
       Total Heat Release Rate:              0.080 kW
       Radiation Loss to Boundaries:        -0.007 kW
       Mesh    2
       Max CFL number:  0.36E-01 at (2,6,3)
       Max divergence:  0.13E-05 at (7,2,2)
       Min divergence: -0.11E-05 at (8,3,7)
       Max VN number:   0.24E-01 at (6,8,1)
       Mesh    3
       Max CFL number:  0.34E-01 at (5,1,7)
       Max divergence:  0.13E-05 at (15,2,2)
       Min divergence: -0.10E-05 at (18,5,7)
       Max VN number:   0.26E-01 at (19,10,1)
       Mesh    4
       Max CFL number:  0.38E-01 at (7,7,8)
       Max divergence:  0.14E-05 at (8,4,2)
       Min divergence: -0.11E-05 at (18,7,6)
       Max VN number:   0.30E-01 at (16,9,1)
 
       Time Step        7   August  3, 2024  17:59:57
       Step Size:    0.160E+00 s, Total Time:       1.12 s
       Pressure Iterations: 1
       Maximum Velocity Error:  0.34E-03 on Mesh 1 at (10,7,1)
       Maximum Pressure Error:  0.67E-01 on Mesh 1 at (7,7,1)
       ---------------------------------------------------------------
       Mesh    1
       Max CFL number:  0.19E+00 at (7,7,1)
       Max divergence:  0.18E+00 at (7,7,1)
       Min divergence: -0.82E-06 at (10,9,7)
       Max VN number:   0.44E-01 at (7,7,2)
       Total Heat Release Rate:              0.096 kW
       Radiation Loss to Boundaries:        -0.013 kW
       Mesh    2
       Max CFL number:  0.35E-01 at (2,6,3)
       Max divergence:  0.13E-05 at (7,2,2)
       Min divergence: -0.11E-05 at (8,3,7)
       Max VN number:   0.24E-01 at (6,8,1)
       Mesh    3
       Max CFL number:  0.33E-01 at (5,1,7)
       Max divergence:  0.13E-05 at (15,2,2)
       Min divergence: -0.10E-05 at (18,5,7)
       Max VN number:   0.26E-01 at (19,10,1)
       Mesh    4
       Max CFL number:  0.37E-01 at (7,7,8)
       Max divergence:  0.14E-05 at (8,4,2)
       Min divergence: -0.11E-05 at (18,7,6)
       Max VN number:   0.30E-01 at (16,9,1)
 
       Time Step        8   August  3, 2024  17:59:57
       Step Size:    0.160E+00 s, Total Time:       1.28 s
       Pressure Iterations: 1
       Maximum Velocity Error:  0.47E-03 on Mesh 3 at (0,7,1)
       Maximum Pressure Error:  0.25E-01 on Mesh 1 at (7,7,2)
       ---------------------------------------------------------------
       Mesh    1
       Max CFL number:  0.29E+00 at (7,7,1)
       Max divergence:  0.18E+00 at (7,7,1)
       Min divergence: -0.81E-06 at (10,9,7)
       Max VN number:   0.79E-01 at (7,7,2)
       Total Heat Release Rate:              0.112 kW
       Radiation Loss to Boundaries:        -0.014 kW
       Mesh    2
       Max CFL number:  0.35E-01 at (2,6,3)
       Max divergence:  0.13E-05 at (7,2,2)
       Min divergence: -0.11E-05 at (8,3,7)
       Max VN number:   0.23E-01 at (6,8,1)
       Mesh    3
       Max CFL number:  0.33E-01 at (5,1,7)
       Max divergence:  0.13E-05 at (15,2,2)
       Min divergence: -0.10E-05 at (18,5,7)
       Max VN number:   0.26E-01 at (19,10,1)
       Mesh    4
       Max CFL number:  0.37E-01 at (7,7,8)
       Max divergence:  0.14E-05 at (8,4,2)
       Min divergence: -0.11E-05 at (18,7,6)
       Max VN number:   0.30E-01 at (16,9,1)
 
       Time Step        9   August  3, 2024  17:59:57
       Step Size:    0.160E+00 s, Total Time:       1.44 s
       Pressure Iterations: 1
       Maximum Velocity Error:  0.67E-03 on Mesh 1 at (10,7,1)
       Maximum Pressure Error:  0.19E+00 on Mesh 1 at (7,7,1)
       ---------------------------------------------------------------
       Mesh    1
       Max CFL number:  0.42E+00 at (7,7,1)
       Max divergence:  0.17E+00 at (7,7,1)
       Min divergence: -0.72E-06 at (8,6,8)
       Max VN number:   0.13E+00 at (7,7,2)
       Total Heat Release Rate:              0.128 kW
       Radiation Loss to Boundaries:        -0.016 kW
       Mesh    2
       Max CFL number:  0.35E-01 at (2,6,3)
       Max divergence:  0.13E-05 at (7,2,2)
       Min divergence: -0.10E-05 at (8,3,7)
       Max VN number:   0.23E-01 at (6,8,1)
       Mesh    3
       Max CFL number:  0.33E-01 at (5,1,7)
       Max divergence:  0.13E-05 at (15,2,2)
       Min divergence: -0.10E-05 at (18,5,7)
       Max VN number:   0.26E-01 at (19,10,1)
       Mesh    4
       Max CFL number:  0.37E-01 at (7,7,8)
       Max divergence:  0.14E-05 at (8,4,2)
       Min divergence: -0.11E-05 at (18,7,6)
       Max VN number:   0.30E-01 at (16,9,1)
 
       Time Step       10   August  3, 2024  17:59:57
       Step Size:    0.160E+00 s, Total Time:       1.60 s
       Pressure Iterations: 1
       Maximum Velocity Error:  0.93E-03 on Mesh 1 at (10,7,1)
       Maximum Pressure Error:  0.38E+00 on Mesh 1 at (7,7,1)
       ---------------------------------------------------------------
       Mesh    1
       Max CFL number:  0.54E+00 at (7,7,1)
       Max divergence:  0.17E+00 at (7,7,1)
       Min divergence: -0.71E-06 at (10,9,7)
       Max VN number:   0.20E+00 at (7,7,2)
       Total Heat Release Rate:              0.144 kW
       Radiation Loss to Boundaries:        -0.018 kW
       Mesh    2
       Max CFL number:  0.35E-01 at (2,6,3)
       Max divergence:  0.13E-05 at (7,2,2)
       Min divergence: -0.10E-05 at (8,3,7)
       Max VN number:   0.22E-01 at (6,8,1)
       Mesh    3
       Max CFL number:  0.33E-01 at (6,5,7)
       Max divergence:  0.13E-05 at (15,2,2)
       Min divergence: -0.10E-05 at (18,5,7)
       Max VN number:   0.26E-01 at (19,10,1)
       Mesh    4
       Max CFL number:  0.36E-01 at (7,7,8)
       Max divergence:  0.14E-05 at (8,4,2)
       Min divergence: -0.11E-05 at (18,7,6)
       Max VN number:   0.30E-01 at (16,9,1)
 
       Time Step       20   August  3, 2024  17:59:59
       Step Size:    0.113E+00 s, Total Time:       3.00 s
       Pressure Iterations: 1
       Maximum Velocity Error:  0.21E-02 on Mesh 1 at (10,7,6)
       Maximum Pressure Error:  0.23E+00 on Mesh 1 at (7,7,7)
       ---------------------------------------------------------------
       Mesh    1
       Max CFL number:  0.85E+00 at (7,7,5)
       Max divergence:  0.33E+00 at (7,7,1)
       Min divergence: -0.44E-01 at (7,7,4)
       Max VN number:   0.43E+00 at (7,7,6)
       Total Heat Release Rate:              0.293 kW
       Radiation Loss to Boundaries:        -0.046 kW
       Mesh    2
       Max CFL number:  0.25E-01 at (1,1,1)
       Max divergence:  0.13E-05 at (5,8,2)
       Min divergence: -0.10E-05 at (8,3,7)
       Max VN number:   0.14E-01 at (10,9,1)
       Mesh    3
       Max CFL number:  0.22E-01 at (1,8,3)
       Max divergence:  0.12E-05 at (15,2,2)
       Min divergence: -0.99E-06 at (18,5,7)
       Max VN number:   0.21E-01 at (4,9,1)
       Mesh    4
       Max CFL number:  0.24E-01 at (7,7,8)
       Max divergence:  0.14E-05 at (8,4,2)
       Min divergence: -0.10E-05 at (18,7,6)
       Max VN number:   0.22E-01 at (16,9,1)
 
       Time Step       30   August  3, 2024  18:00:00
       Step Size:    0.995E-01 s, Total Time:       4.06 s
       Pressure Iterations: 1
       Maximum Velocity Error:  0.16E-02 on Mesh 1 at (10,7,5)
       Maximum Pressure Error:  0.22E+00 on Mesh 1 at (7,7,3)
       ---------------------------------------------------------------
       Mesh    1
       Max CFL number:  0.84E+00 at (7,7,6)
       Max divergence:  0.44E+00 at (7,7,1)
       Min divergence: -0.81E-01 at (7,7,4)
       Max VN number:   0.39E+00 at (7,7,10)
       Total Heat Release Rate:              0.392 kW
       Radiation Loss to Boundaries:        -0.060 kW
       Mesh    2
       Max CFL number:  0.34E-01 at (1,1,2)
       Max divergence:  0.68E-05 at (2,1,1)
       Min divergence: -0.96E-06 at (8,3,7)
       Max VN number:   0.13E-01 at (10,9,1)
       Mesh    3
       Max CFL number:  0.24E-01 at (1,8,3)
       Max divergence:  0.63E-05 at (1,7,1)
       Min divergence: -0.87E-06 at (18,5,7)
       Max VN number:   0.16E-01 at (13,4,1)
       Mesh    4
       Max CFL number:  0.21E-01 at (7,7,8)
       Max divergence:  0.22E-05 at (6,10,2)
       Min divergence: -0.10E-05 at (18,7,6)
       Max VN number:   0.18E-01 at (16,9,1)
 
       Time Step       40   August  3, 2024  18:00:01
       Step Size:    0.995E-01 s, Total Time:       5.06 s
       Pressure Iterations: 1
       Maximum Velocity Error:  0.21E-02 on Mesh 1 at (10,7,9)
       Maximum Pressure Error:  0.14E+00 on Mesh 1 at (7,7,5)
       ---------------------------------------------------------------
       Mesh    1
       Max CFL number:  0.91E+00 at (7,7,9)
       Max divergence:  0.53E+00 at (7,7,1)
       Min divergence: -0.92E-01 at (7,7,5)
       Max VN number:   0.38E+00 at (7,7,4)
       Total Heat Release Rate:              0.491 kW
       Radiation Loss to Boundaries:        -0.074 kW
       Mesh    2
       Max CFL number:  0.37E-01 at (1,1,2)
       Max divergence:  0.16E-04 at (2,1,1)
       Min divergence: -0.62E-06 at (8,3,7)
       Max VN number:   0.13E-01 at (10,9,1)
       Mesh    3
       Max CFL number:  0.25E-01 at (1,8,3)
       Max divergence:  0.17E-04 at (1,7,1)
       Min divergence: -0.70E-06 at (10,2,8)
       Max VN number:   0.17E-01 at (13,4,1)
       Mesh    4
       Max CFL number:  0.21E-01 at (7,7,9)
       Max divergence:  0.55E-05 at (7,10,2)
       Min divergence: -0.96E-06 at (18,7,6)
       Max VN number:   0.18E-01 at (16,9,1)
 
       Time Step       50   August  3, 2024  18:00:03
       Step Size:    0.995E-01 s, Total Time:       6.05 s
       Pressure Iterations: 1
       Maximum Velocity Error:  0.64E-03 on Mesh 1 at (10,1,1)
       Maximum Pressure Error:  0.11E+00 on Mesh 1 at (7,7,3)
       ---------------------------------------------------------------
       Mesh    1
       Max CFL number:  0.97E+00 at (7,7,10)
       Max divergence:  0.64E+00 at (7,7,1)
       Min divergence: -0.10E+00 at (7,7,4)
       Max VN number:   0.40E+00 at (7,7,5)
       Total Heat Release Rate:              0.590 kW
       Radiation Loss to Boundaries:        -0.098 kW
       Mesh    2
       Max CFL number:  0.36E-01 at (1,1,2)
       Max divergence:  0.21E-04 at (2,1,1)
       Min divergence: -0.24E-06 at (6,4,9)
       Max VN number:   0.13E-01 at (10,9,1)
       Mesh    3
       Max CFL number:  0.24E-01 at (1,8,3)
       Max divergence:  0.21E-04 at (1,7,1)
       Min divergence: -0.57E-06 at (20,4,2)
       Max VN number:   0.16E-01 at (13,4,1)
       Mesh    4
       Max CFL number:  0.20E-01 at (7,7,9)
       Max divergence:  0.61E-05 at (7,10,2)
       Min divergence: -0.61E-06 at (18,7,6)
       Max VN number:   0.18E-01 at (16,9,1)
 
       Time Step       60   August  3, 2024  18:00:04
       Step Size:    0.894E-01 s, Total Time:       7.00 s
       Pressure Iterations: 1
       Maximum Velocity Error:  0.18E-03 on Mesh 1 at (10,1,1)
       Maximum Pressure Error:  0.98E-01 on Mesh 1 at (7,7,5)
       ---------------------------------------------------------------
       Mesh    1
       Max CFL number:  0.92E+00 at (7,7,10)
       Max divergence:  0.72E+00 at (7,7,1)
       Min divergence: -0.12E+00 at (7,7,4)
       Max VN number:   0.39E+00 at (7,7,5)
       Total Heat Release Rate:              0.687 kW
       Radiation Loss to Boundaries:        -0.112 kW
       Mesh    2
       Max CFL number:  0.34E-01 at (1,1,2)
       Max divergence:  0.28E-04 at (2,1,1)
       Min divergence:  0.40E-07 at (6,4,9)
       Max VN number:   0.13E-01 at (2,5,1)
       Mesh    3
       Max CFL number:  0.23E-01 at (1,7,2)
       Max divergence:  0.30E-04 at (1,7,1)
       Min divergence: -0.51E-06 at (20,4,2)
       Max VN number:   0.15E-01 at (13,4,1)
       Radiation Loss to Boundaries:         0.001 kW
       Mesh    4
       Max CFL number:  0.17E-01 at (7,7,9)
       Max divergence:  0.85E-05 at (7,10,2)
       Min divergence: -0.34E-06 at (8,1,9)
       Max VN number:   0.15E-01 at (16,9,1)
 
       Time Step       70   August  3, 2024  18:00:05
       Step Size:    0.894E-01 s, Total Time:       7.89 s
       Pressure Iterations: 1
       Maximum Velocity Error:  0.58E-03 on Mesh 1 at (10,7,8)
       Maximum Pressure Error:  0.87E-01 on Mesh 1 at (7,7,5)
       ---------------------------------------------------------------
       Mesh    1
       Max CFL number:  0.98E+00 at (7,7,10)
       Max divergence:  0.80E+00 at (7,7,1)
       Min divergence: -0.14E+00 at (7,7,6)
       Max VN number:   0.40E+00 at (7,7,5)
       Total Heat Release Rate:              0.775 kW
       Radiation Loss to Boundaries:        -0.125 kW
       Mesh    2
       Max CFL number:  0.35E-01 at (1,1,2)
       Max divergence:  0.33E-04 at (2,1,2)
       Min divergence:  0.23E-06 at (10,7,9)
       Max VN number:   0.14E-01 at (2,5,1)
       Mesh    3
       Max CFL number:  0.26E-01 at (1,7,2)
       Max divergence:  0.36E-04 at (1,7,2)
       Min divergence: -0.43E-06 at (19,1,3)
       Max VN number:   0.15E-01 at (13,4,1)
       Radiation Loss to Boundaries:         0.001 kW
       Mesh    4
       Max CFL number:  0.17E-01 at (7,7,9)
       Max divergence:  0.11E-04 at (7,10,2)
       Min divergence: -0.27E-06 at (18,7,6)
       Max VN number:   0.15E-01 at (16,9,1)
 
       Time Step       80   August  3, 2024  18:00:06
       Step Size:    0.803E-01 s, Total Time:       8.74 s
       Pressure Iterations: 1
       Maximum Velocity Error:  0.49E-03 on Mesh 3 at (0,7,9)
       Maximum Pressure Error:  0.10E+00 on Mesh 1 at (7,7,4)
       ---------------------------------------------------------------
       Mesh    1
       Max CFL number:  0.91E+00 at (7,7,10)
       Max divergence:  0.88E+00 at (7,7,1)
       Min divergence: -0.14E+00 at (7,7,6)
       Max VN number:   0.37E+00 at (7,7,5)
       Total Heat Release Rate:              0.863 kW
       Radiation Loss to Boundaries:        -0.139 kW
       Mesh    2
       Max CFL number:  0.33E-01 at (1,1,3)
       Max divergence:  0.37E-04 at (2,1,2)
       Min divergence:  0.36E-06 at (10,7,9)
       Max VN number:   0.13E-01 at (2,5,1)
       Radiation Loss to Boundaries:         0.001 kW
       Mesh    3
       Max CFL number:  0.27E-01 at (1,7,2)
       Max divergence:  0.39E-04 at (1,7,2)
       Min divergence: -0.41E-06 at (20,4,2)
       Max VN number:   0.13E-01 at (13,4,1)
       Radiation Loss to Boundaries:         0.001 kW
       Mesh    4
       Max CFL number:  0.15E-01 at (7,7,9)
       Max divergence:  0.11E-04 at (7,10,2)
       Min divergence: -0.92E-07 at (19,2,3)
       Max VN number:   0.13E-01 at (9,5,1)
       Radiation Loss to Boundaries:         0.001 kW
 
       Time Step       90   August  3, 2024  18:00:08
       Step Size:    0.803E-01 s, Total Time:       9.54 s
       Pressure Iterations: 1
       Maximum Velocity Error:  0.11E-02 on Mesh 1 at (10,7,8)
       Maximum Pressure Error:  0.11E+00 on Mesh 1 at (7,7,5)
       ---------------------------------------------------------------
       Mesh    1
       Max CFL number:  0.94E+00 at (7,7,10)
       Max divergence:  0.94E+00 at (7,7,1)
       Min divergence: -0.16E+00 at (7,7,6)
       Max VN number:   0.39E+00 at (7,7,5)
       Total Heat Release Rate:              0.940 kW
       Radiation Loss to Boundaries:        -0.150 kW
       Mesh    2
       Max CFL number:  0.35E-01 at (1,1,2)
       Max divergence:  0.43E-04 at (2,1,2)
       Min divergence:  0.41E-06 at (10,7,9)
       Max VN number:   0.14E-01 at (2,5,1)
       Radiation Loss to Boundaries:         0.001 kW
       Mesh    3
       Max CFL number:  0.29E-01 at (1,7,2)
       Max divergence:  0.46E-04 at (1,7,2)
       Min divergence: -0.35E-06 at (20,4,2)
       Max VN number:   0.14E-01 at (5,6,1)
       Radiation Loss to Boundaries:         0.002 kW
       Mesh    4
       Max CFL number:  0.14E-01 at (7,7,9)
       Max divergence:  0.13E-04 at (7,10,2)
       Min divergence: -0.62E-07 at (8,1,9)
       Max VN number:   0.13E-01 at (9,5,1)
       Radiation Loss to Boundaries:         0.001 kW
 
       Time Step      100   August  3, 2024  18:00:09
       Step Size:    0.803E-01 s, Total Time:      10.34 s
       Pressure Iterations: 1
       Maximum Velocity Error:  0.13E-02 on Mesh 1 at (10,7,9)
       Maximum Pressure Error:  0.96E-01 on Mesh 1 at (7,7,5)
       ---------------------------------------------------------------
       Mesh    1
       Max CFL number:  0.98E+00 at (7,7,10)
       Max divergence:  0.10E+01 at (7,7,1)
       Min divergence: -0.17E+00 at (7,7,6)
       Max VN number:   0.40E+00 at (7,7,5)
       Total Heat Release Rate:              1.021 kW
       Radiation Loss to Boundaries:        -0.162 kW
       Mesh    2
       Max CFL number:  0.39E-01 at (1,1,3)
       Max divergence:  0.48E-04 at (2,1,2)
       Min divergence:  0.61E-06 at (10,10,10)
       Max VN number:   0.14E-01 at (2,5,1)
       Radiation Loss to Boundaries:         0.001 kW
       Mesh    3
       Max CFL number:  0.30E-01 at (1,7,2)
       Max divergence:  0.51E-04 at (1,7,2)
       Min divergence: -0.30E-06 at (19,1,3)
       Max VN number:   0.15E-01 at (5,6,1)
       Radiation Loss to Boundaries:         0.002 kW
       Mesh    4
       Max CFL number:  0.14E-01 at (7,7,9)
       Max divergence:  0.15E-04 at (7,10,2)
       Min divergence:  0.18E-07 at (20,1,2)
       Max VN number:   0.13E-01 at (4,3,1)
       Radiation Loss to Boundaries:         0.001 kW
 
       Time Step      200   August  3, 2024  18:00:21
       Step Size:    0.640E-01 s, Total Time:      17.37 s
       Pressure Iterations: 1
       Maximum Velocity Error:  0.38E-02 on Mesh 1 at (10,7,7)
       Maximum Pressure Error:  0.86E+00 on Mesh 1 at (8,7,8)
       ---------------------------------------------------------------
       Mesh    1
       Max CFL number:  0.93E+00 at (7,7,9)
       Max divergence:  0.16E+01 at (7,7,1)
       Min divergence: -0.31E+00 at (7,7,4)
       Max VN number:   0.38E+00 at (7,7,5)
       Total Heat Release Rate:              1.727 kW
       Radiation Loss to Boundaries:        -0.282 kW
       Mesh    2
       Max CFL number:  0.40E-01 at (1,1,1)
       Max divergence:  0.74E-04 at (2,1,1)
       Min divergence:  0.14E-05 at (10,10,10)
       Max VN number:   0.18E-01 at (1,2,3)
       Radiation Loss to Boundaries:         0.003 kW
       Mesh    3
       Max CFL number:  0.39E-01 at (1,7,1)
       Max divergence:  0.80E-04 at (1,7,2)
       Min divergence:  0.28E-08 at (19,1,2)
       Max VN number:   0.16E-01 at (1,7,2)
       Radiation Loss to Boundaries:         0.004 kW
       Mesh    4
       Max CFL number:  0.13E-01 at (10,10,1)
       Max divergence:  0.26E-04 at (7,10,2)
       Min divergence:  0.39E-06 at (20,1,2)
       Max VN number:   0.11E-01 at (4,3,1)
       Radiation Loss to Boundaries:         0.003 kW
 
       Time Step      300   August  3, 2024  18:00:34
       Step Size:    0.573E-01 s, Total Time:      23.42 s
       Pressure Iterations: 1
       Maximum Velocity Error:  0.29E-02 on Mesh 1 at (10,7,9)
       Maximum Pressure Error:  0.45E+00 on Mesh 1 at (7,7,3)
       ---------------------------------------------------------------
       Mesh    1
       Max CFL number:  0.89E+00 at (7,7,10)
       Max divergence:  0.18E+01 at (7,7,1)
       Min divergence: -0.37E+00 at (7,7,4)
       Max VN number:   0.36E+00 at (7,7,5)
       Total Heat Release Rate:              2.323 kW
       Radiation Loss to Boundaries:        -0.347 kW
       Mesh    2
       Max CFL number:  0.47E-01 at (2,1,1)
       Max divergence:  0.11E-03 at (2,1,10)
       Min divergence:  0.17E-05 at (10,10,10)
       Max VN number:   0.20E-01 at (2,1,3)
       Radiation Loss to Boundaries:         0.004 kW
       Mesh    3
       Max CFL number:  0.52E-01 at (1,7,1)
       Max divergence:  0.19E-03 at (1,6,10)
       Min divergence:  0.16E-06 at (19,1,2)
       Max VN number:   0.22E-01 at (1,7,9)
       Radiation Loss to Boundaries:         0.005 kW
       Mesh    4
       Max CFL number:  0.15E-01 at (6,10,2)
       Max divergence:  0.36E-04 at (7,10,2)
       Min divergence:  0.63E-06 at (20,1,2)
       Max VN number:   0.80E-02 at (4,3,1)
       Radiation Loss to Boundaries:         0.004 kW
 
       Time Step      400   August  3, 2024  18:00:47
       Step Size:    0.513E-01 s, Total Time:      28.66 s
       Pressure Iterations: 1
       Maximum Velocity Error:  0.31E-02 on Mesh 3 at (0,7,8)
       Maximum Pressure Error:  0.51E+00 on Mesh 1 at (8,7,10)
       ---------------------------------------------------------------
       Mesh    1
       Max CFL number:  0.88E+00 at (7,7,9)
       Max divergence:  0.22E+01 at (7,7,1)
       Min divergence: -0.46E+00 at (7,7,4)
       Max VN number:   0.35E+00 at (7,7,6)
       Total Heat Release Rate:              2.837 kW
       Radiation Loss to Boundaries:        -0.433 kW
       Mesh    2
       Max CFL number:  0.47E-01 at (2,1,1)
       Max divergence:  0.16E-03 at (2,1,1)
       Min divergence:  0.26E-05 at (10,10,10)
       Max VN number:   0.69E-01 at (3,1,1)
       Radiation Loss to Boundaries:         0.005 kW
       Mesh    3
       Max CFL number:  0.42E-01 at (1,8,1)
       Max divergence:  0.21E-03 at (1,7,9)
       Min divergence:  0.36E-06 at (19,1,2)
       Max VN number:   0.17E-01 at (1,7,2)
       Radiation Loss to Boundaries:         0.006 kW
       Mesh    4
       Max CFL number:  0.17E-01 at (1,10,2)
       Max divergence:  0.44E-04 at (7,10,2)
       Min divergence:  0.85E-06 at (20,1,2)
       Max VN number:   0.62E-02 at (7,10,4)
       Radiation Loss to Boundaries:         0.005 kW
 
       Time Step      500   August  3, 2024  18:00:59
       Step Size:    0.513E-01 s, Total Time:      33.78 s
       Pressure Iterations: 1
       Maximum Velocity Error:  0.42E-02 on Mesh 1 at (10,8,7)
       Maximum Pressure Error:  0.26E+01 on Mesh 1 at (6,7,8)
       ---------------------------------------------------------------
       Mesh    1
       Max CFL number:  0.82E+00 at (7,7,6)
       Max divergence:  0.23E+01 at (7,7,1)
       Min divergence: -0.44E+00 at (7,7,4)
       Max VN number:   0.33E+00 at (7,7,4)
       Total Heat Release Rate:              3.023 kW
       Radiation Loss to Boundaries:        -0.480 kW
       Mesh    2
       Max CFL number:  0.55E-01 at (4,1,2)
       Max divergence:  0.18E-03 at (2,1,2)
       Min divergence:  0.29E-05 at (10,10,10)
       Max VN number:   0.22E-01 at (2,1,2)
       Radiation Loss to Boundaries:         0.005 kW
       Mesh    3
       Max CFL number:  0.52E-01 at (1,7,2)
       Max divergence:  0.18E-03 at (1,7,2)
       Min divergence: -0.91E-04 at (1,9,1)
       Max VN number:   0.24E-01 at (1,7,2)
       Radiation Loss to Boundaries:         0.007 kW
       Mesh    4
       Max CFL number:  0.20E-01 at (7,10,6)
       Max divergence:  0.47E-04 at (7,10,2)
       Min divergence:  0.10E-05 at (20,1,2)
       Max VN number:   0.82E-02 at (7,10,5)
       Radiation Loss to Boundaries:         0.005 kW
 
       Time Step      600   August  3, 2024  18:01:12
       Step Size:    0.540E-01 s, Total Time:      38.88 s
       Pressure Iterations: 1
       Maximum Velocity Error:  0.40E-02 on Mesh 1 at (7,10,9)
       Maximum Pressure Error:  0.32E+01 on Mesh 1 at (6,6,7)
       ---------------------------------------------------------------
       Mesh    1
       Max CFL number:  0.90E+00 at (6,7,7)
       Max divergence:  0.23E+01 at (7,7,1)
       Min divergence: -0.29E+00 at (7,7,4)
       Max VN number:   0.29E+00 at (6,7,10)
       Total Heat Release Rate:              2.962 kW
       Radiation Loss to Boundaries:        -0.489 kW
       Mesh    2
       Max CFL number:  0.54E-01 at (3,2,1)
       Max divergence:  0.14E-03 at (2,1,2)
       Min divergence:  0.31E-05 at (10,10,9)
       Max VN number:   0.18E-01 at (3,2,2)
       Radiation Loss to Boundaries:         0.005 kW
       Mesh    3
       Max CFL number:  0.64E-01 at (1,7,1)
       Max divergence:  0.42E-03 at (1,7,9)
       Min divergence:  0.54E-06 at (19,1,2)
       Max VN number:   0.21E-01 at (1,7,1)
       Radiation Loss to Boundaries:         0.006 kW
       Mesh    4
       Max CFL number:  0.32E-01 at (7,10,1)
       Max divergence:  0.41E-04 at (7,10,1)
       Min divergence:  0.11E-05 at (20,1,2)
       Max VN number:   0.13E-01 at (8,10,2)
       Radiation Loss to Boundaries:         0.005 kW
 
       Time Step      700   August  3, 2024  18:01:24
       Step Size:    0.562E-01 s, Total Time:      43.96 s
       Pressure Iterations: 1
       Maximum Velocity Error:  0.27E-02 on Mesh 1 at (7,10,8)
       Maximum Pressure Error:  0.45E+01 on Mesh 1 at (6,7,7)
       ---------------------------------------------------------------
       Mesh    1
       Max CFL number:  0.95E+00 at (7,7,9)
       Max divergence:  0.24E+01 at (7,7,1)
       Min divergence: -0.36E+00 at (7,7,4)
       Max VN number:   0.37E+00 at (7,7,9)
       Total Heat Release Rate:              3.022 kW
       Radiation Loss to Boundaries:        -0.471 kW
       Mesh    2
       Max CFL number:  0.76E-01 at (3,1,1)
       Max divergence:  0.77E-03 at (2,1,10)
       Min divergence:  0.32E-05 at (8,10,9)
       Max VN number:   0.33E-01 at (3,1,2)
       Radiation Loss to Boundaries:         0.006 kW
       Mesh    3
       Max CFL number:  0.13E+00 at (1,7,1)
       Max divergence:  0.14E-02 at (1,8,10)
       Min divergence:  0.63E-06 at (19,1,2)
       Max VN number:   0.90E-01 at (2,5,1)
       Radiation Loss to Boundaries:         0.007 kW
       Mesh    4
       Max CFL number:  0.31E-01 at (7,9,1)
       Max divergence:  0.43E-04 at (7,10,2)
       Min divergence:  0.10E-05 at (20,1,2)
       Max VN number:   0.12E-01 at (8,9,2)
       Radiation Loss to Boundaries:         0.005 kW
 
       Time Step      800   August  3, 2024  18:01:37
       Step Size:    0.552E-01 s, Total Time:      49.30 s
       Pressure Iterations: 1
       Maximum Velocity Error:  0.35E-02 on Mesh 1 at (7,10,8)
       Maximum Pressure Error:  0.15E+01 on Mesh 1 at (6,7,7)
       ---------------------------------------------------------------
       Mesh    1
       Max CFL number:  0.91E+00 at (7,7,9)
       Max divergence:  0.24E+01 at (7,7,1)
       Min divergence: -0.36E+00 at (7,7,4)
       Max VN number:   0.32E+00 at (7,7,4)
       Total Heat Release Rate:              3.008 kW
       Radiation Loss to Boundaries:        -0.484 kW
       Mesh    2
       Max CFL number:  0.81E-01 at (2,2,1)
       Max divergence:  0.18E-03 at (2,1,1)
       Min divergence:  0.26E-05 at (10,10,9)
       Max VN number:   0.43E-01 at (2,3,1)
       Radiation Loss to Boundaries:         0.005 kW
       Mesh    3
       Max CFL number:  0.78E-01 at (1,7,2)
       Max divergence:  0.68E-03 at (1,7,9)
       Min divergence:  0.64E-06 at (20,7,1)
       Max VN number:   0.64E-01 at (1,4,1)
       Radiation Loss to Boundaries:         0.007 kW
       Mesh    4
       Max CFL number:  0.32E-01 at (7,10,7)
       Max divergence:  0.52E-04 at (7,10,2)
       Min divergence:  0.11E-05 at (20,1,2)
       Max VN number:   0.12E-01 at (8,9,1)
       Radiation Loss to Boundaries:         0.005 kW
 
       Time Step      900   August  3, 2024  18:01:49
       Step Size:    0.471E-01 s, Total Time:      54.37 s
       Pressure Iterations: 1
       Maximum Velocity Error:  0.23E-02 on Mesh 3 at (0,6,8)
       Maximum Pressure Error:  0.55E+00 on Mesh 1 at (8,7,10)
       ---------------------------------------------------------------
       Mesh    1
       Max CFL number:  0.83E+00 at (7,7,7)
       Max divergence:  0.25E+01 at (7,7,1)
       Min divergence: -0.49E+00 at (7,7,4)
       Max VN number:   0.35E+00 at (7,7,5)
       Total Heat Release Rate:              2.991 kW
       Radiation Loss to Boundaries:        -0.475 kW
       Mesh    2
       Max CFL number:  0.58E-01 at (3,1,1)
       Max divergence:  0.20E-03 at (2,1,1)
       Min divergence:  0.26E-05 at (9,3,10)
       Max VN number:   0.21E-01 at (3,1,2)
       Radiation Loss to Boundaries:         0.005 kW
       Mesh    3
       Max CFL number:  0.69E-01 at (1,5,1)
       Max divergence:  0.51E-03 at (1,7,9)
       Min divergence:  0.70E-06 at (20,1,1)
       Max VN number:   0.37E-01 at (2,6,1)
       Radiation Loss to Boundaries:         0.007 kW
       Mesh    4
       Max CFL number:  0.32E-01 at (7,10,6)
       Max divergence:  0.49E-04 at (7,10,2)
       Min divergence:  0.98E-06 at (20,1,9)
       Max VN number:   0.14E-01 at (8,8,1)
       Radiation Loss to Boundaries:         0.005 kW
 
       Time Step     1000   August  3, 2024  18:02:02
       Step Size:    0.519E-01 s, Total Time:      59.40 s
       Pressure Iterations: 1
       Maximum Velocity Error:  0.41E-02 on Mesh 1 at (10,7,9)
       Maximum Pressure Error:  0.18E+01 on Mesh 1 at (7,7,5)
       ---------------------------------------------------------------
       Mesh    1
       Max CFL number:  0.91E+00 at (7,7,10)
       Max divergence:  0.24E+01 at (7,7,1)
       Min divergence: -0.27E+00 at (7,7,4)
       Max VN number:   0.32E+00 at (7,7,9)
       Total Heat Release Rate:              2.918 kW
       Radiation Loss to Boundaries:        -0.490 kW
       Mesh    2
       Max CFL number:  0.56E-01 at (3,1,1)
       Max divergence:  0.22E-03 at (3,1,1)
       Min divergence: -0.40E-05 at (3,1,10)
       Max VN number:   0.41E-01 at (2,1,1)
       Radiation Loss to Boundaries:         0.005 kW
       Mesh    3
       Max CFL number:  0.57E-01 at (1,7,1)
       Max divergence:  0.23E-03 at (1,4,1)
       Min divergence:  0.64E-06 at (20,7,2)
       Max VN number:   0.20E-01 at (1,6,2)
       Radiation Loss to Boundaries:         0.007 kW
       Mesh    4
       Max CFL number:  0.38E-01 at (7,10,7)
       Max divergence:  0.51E-04 at (7,10,2)
       Min divergence:  0.11E-05 at (20,1,2)
       Max VN number:   0.12E-01 at (1,9,2)
       Radiation Loss to Boundaries:         0.005 kW
 
       Time Step     1100   August  3, 2024  18:02:14
       Step Size:    0.543E-01 s, Total Time:      64.64 s
       Pressure Iterations: 1
       Maximum Velocity Error:  0.46E-02 on Mesh 1 at (10,7,9)
       Maximum Pressure Error:  0.12E+01 on Mesh 1 at (7,7,5)
       ---------------------------------------------------------------
       Mesh    1
       Max CFL number:  0.95E+00 at (7,7,9)
       Max divergence:  0.24E+01 at (7,7,1)
       Min divergence: -0.38E+00 at (7,7,6)
       Max VN number:   0.37E+00 at (7,7,7)
       Total Heat Release Rate:              2.936 kW
       Radiation Loss to Boundaries:        -0.457 kW
       Mesh    2
       Max CFL number:  0.64E-01 at (3,2,1)
       Max divergence:  0.15E-03 at (2,1,1)
       Min divergence:  0.21E-05 at (10,10,8)
       Max VN number:   0.39E-01 at (3,3,1)
       Radiation Loss to Boundaries:         0.005 kW
       Mesh    3
       Max CFL number:  0.71E-01 at (1,7,2)
       Max divergence:  0.19E-03 at (1,7,3)
       Min divergence: -0.40E-04 at (1,9,10)
       Max VN number:   0.35E-01 at (2,5,1)
       Radiation Loss to Boundaries:         0.007 kW
       Mesh    4
       Max CFL number:  0.42E-01 at (7,10,9)
       Max divergence:  0.48E-04 at (7,10,3)
       Min divergence:  0.10E-05 at (13,1,9)
       Max VN number:   0.13E-01 at (9,5,1)
       Radiation Loss to Boundaries:         0.005 kW
 
       Time Step     1200   August  3, 2024  18:02:27
       Step Size:    0.567E-01 s, Total Time:      69.93 s
       Pressure Iterations: 1
       Maximum Velocity Error:  0.30E-02 on Mesh 1 at (10,7,8)
       Maximum Pressure Error:  0.15E+01 on Mesh 1 at (7,7,6)
       ---------------------------------------------------------------
       Mesh    1
       Max CFL number:  0.91E+00 at (7,7,6)
       Max divergence:  0.23E+01 at (7,7,1)
       Min divergence: -0.44E+00 at (7,7,5)
       Max VN number:   0.38E+00 at (7,7,4)
       Total Heat Release Rate:              3.022 kW
       Radiation Loss to Boundaries:        -0.464 kW
       Mesh    2
       Max CFL number:  0.72E-01 at (3,1,1)
       Max divergence:  0.13E-03 at (2,1,2)
       Min divergence:  0.21E-05 at (9,7,10)
       Max VN number:   0.25E-01 at (3,1,2)
       Radiation Loss to Boundaries:         0.005 kW
       Mesh    3
       Max CFL number:  0.62E-01 at (1,6,1)
       Max divergence:  0.16E-03 at (1,7,1)
       Min divergence: -0.13E-04 at (1,5,1)
       Max VN number:   0.38E-01 at (1,7,1)
       Radiation Loss to Boundaries:         0.007 kW
       Mesh    4
       Max CFL number:  0.41E-01 at (7,9,9)
       Max divergence:  0.45E-04 at (7,10,2)
       Min divergence:  0.79E-08 at (19,10,9)
       Max VN number:   0.13E-01 at (8,9,9)
       Radiation Loss to Boundaries:         0.005 kW
 
       Time Step     1300   August  3, 2024  18:02:39
       Step Size:    0.501E-01 s, Total Time:      75.26 s
       Pressure Iterations: 1
       Maximum Velocity Error:  0.34E-02 on Mesh 2 at (2,0,9)
       Maximum Pressure Error:  0.47E+01 on Mesh 1 at (6,7,9)
       ---------------------------------------------------------------
       Mesh    1
       Max CFL number:  0.89E+00 at (7,7,10)
       Max divergence:  0.25E+01 at (7,7,1)
       Min divergence: -0.46E+00 at (7,7,4)
       Max VN number:   0.34E+00 at (7,7,5)
       Total Heat Release Rate:              3.005 kW
       Radiation Loss to Boundaries:        -0.475 kW
       Mesh    2
       Max CFL number:  0.94E-01 at (3,1,1)
       Max divergence:  0.15E-03 at (2,1,2)
       Min divergence:  0.26E-05 at (9,9,10)
       Max VN number:   0.27E-01 at (3,1,2)
       Radiation Loss to Boundaries:         0.005 kW
       Mesh    3
       Max CFL number:  0.48E-01 at (1,6,8)
       Max divergence:  0.16E-03 at (1,7,2)
       Min divergence:  0.39E-06 at (4,8,10)
       Max VN number:   0.20E-01 at (8,5,1)
       Radiation Loss to Boundaries:         0.007 kW
       Mesh    4
       Max CFL number:  0.40E-01 at (9,10,1)
       Max divergence:  0.47E-04 at (7,10,2)
       Min divergence:  0.33E-06 at (13,1,9)
       Max VN number:   0.15E-01 at (8,10,2)
       Radiation Loss to Boundaries:         0.005 kW
 
       Time Step     1400   August  3, 2024  18:02:52
       Step Size:    0.472E-01 s, Total Time:      80.35 s
       Pressure Iterations: 1
       Maximum Velocity Error:  0.17E-02 on Mesh 3 at (0,1,1)
       Maximum Pressure Error:  0.14E+01 on Mesh 1 at (7,6,9)
       ---------------------------------------------------------------
       Mesh    1
       Max CFL number:  0.86E+00 at (7,7,7)
       Max divergence:  0.24E+01 at (7,7,1)
       Min divergence: -0.53E+00 at (7,7,4)
       Max VN number:   0.34E+00 at (7,7,5)
       Total Heat Release Rate:              2.996 kW
       Radiation Loss to Boundaries:        -0.466 kW
       Mesh    2
       Max CFL number:  0.59E-01 at (2,1,1)
       Max divergence:  0.15E-03 at (2,1,2)
       Min divergence:  0.22E-05 at (9,9,10)
       Max VN number:   0.30E-01 at (2,1,9)
       Radiation Loss to Boundaries:         0.005 kW
       Mesh    3
       Max CFL number:  0.50E-01 at (1,7,5)
       Max divergence:  0.41E-03 at (1,7,9)
       Min divergence: -0.33E-04 at (1,7,10)
       Max VN number:   0.26E-01 at (1,6,1)
       Radiation Loss to Boundaries:         0.007 kW
       Mesh    4
       Max CFL number:  0.53E-01 at (7,10,1)
       Max divergence:  0.50E-04 at (7,10,1)
       Min divergence:  0.48E-06 at (13,1,9)
       Max VN number:   0.14E-01 at (7,10,3)
       Radiation Loss to Boundaries:         0.005 kW
 
       Time Step     1500   August  3, 2024  18:03:04
       Step Size:    0.520E-01 s, Total Time:      85.38 s
       Pressure Iterations: 1
       Maximum Velocity Error:  0.24E-02 on Mesh 1 at (10,8,7)
       Maximum Pressure Error:  0.18E+01 on Mesh 1 at (6,7,6)
       ---------------------------------------------------------------
       Mesh    1
       Max CFL number:  0.93E+00 at (7,7,9)
       Max divergence:  0.24E+01 at (7,7,1)
       Min divergence: -0.48E+00 at (7,7,4)
       Max VN number:   0.35E+00 at (7,7,4)
       Total Heat Release Rate:              2.987 kW
       Radiation Loss to Boundaries:        -0.473 kW
       Mesh    2
       Max CFL number:  0.95E-01 at (3,1,1)
       Max divergence:  0.19E-03 at (2,1,5)
       Min divergence:  0.89E-06 at (9,9,10)
       Max VN number:   0.30E-01 at (3,1,2)
       Radiation Loss to Boundaries:         0.005 kW
       Mesh    3
       Max CFL number:  0.67E-01 at (1,6,4)
       Max divergence:  0.26E-03 at (1,7,9)
       Min divergence:  0.43E-06 at (19,7,10)
       Max VN number:   0.25E-01 at (1,7,4)
       Radiation Loss to Boundaries:         0.007 kW
       Mesh    4
       Max CFL number:  0.40E-01 at (7,8,1)
       Max divergence:  0.47E-04 at (7,10,2)
       Min divergence:  0.18E-06 at (13,2,8)
       Max VN number:   0.26E-01 at (8,3,1)
       Radiation Loss to Boundaries:         0.005 kW
 
       Time Step     1600   August  3, 2024  18:03:17
       Step Size:    0.511E-01 s, Total Time:      90.48 s
       Pressure Iterations: 1
       Maximum Velocity Error:  0.27E-02 on Mesh 1 at (7,10,7)
       Maximum Pressure Error:  0.25E+01 on Mesh 1 at (6,7,10)
       ---------------------------------------------------------------
       Mesh    1
       Max CFL number:  0.87E+00 at (7,7,8)
       Max divergence:  0.25E+01 at (7,7,1)
       Min divergence: -0.52E+00 at (7,7,4)
       Max VN number:   0.37E+00 at (7,7,5)
       Total Heat Release Rate:              3.003 kW
       Radiation Loss to Boundaries:        -0.482 kW
       Mesh    2
       Max CFL number:  0.56E-01 at (4,2,2)
       Max divergence:  0.13E-03 at (2,1,2)
       Min divergence:  0.13E-05 at (9,9,10)
       Max VN number:   0.39E-01 at (1,1,1)
       Radiation Loss to Boundaries:         0.005 kW
       Mesh    3
       Max CFL number:  0.48E-01 at (1,6,1)
       Max divergence:  0.15E-03 at (1,7,2)
       Min divergence:  0.19E-06 at (19,7,10)
       Max VN number:   0.22E-01 at (7,5,1)
       Radiation Loss to Boundaries:         0.007 kW
       Mesh    4
       Max CFL number:  0.54E-01 at (7,10,1)
       Max divergence:  0.46E-04 at (7,10,1)
       Min divergence:  0.91E-06 at (13,3,9)
       Max VN number:   0.16E-01 at (1,10,1)
       Radiation Loss to Boundaries:         0.005 kW
 
       Time Step     1700   August  3, 2024  18:03:29
       Step Size:    0.505E-01 s, Total Time:      95.65 s
       Pressure Iterations: 1
       Maximum Velocity Error:  0.45E-02 on Mesh 1 at (6,10,8)
       Maximum Pressure Error:  0.97E+00 on Mesh 1 at (6,7,10)
       ---------------------------------------------------------------
       Mesh    1
       Max CFL number:  0.97E+00 at (7,7,9)
       Max divergence:  0.25E+01 at (7,7,1)
       Min divergence: -0.52E+00 at (7,7,4)
       Max VN number:   0.37E+00 at (7,7,7)
       Total Heat Release Rate:              2.980 kW
       Radiation Loss to Boundaries:        -0.472 kW
       Mesh    2
       Max CFL number:  0.64E-01 at (3,1,1)
       Max divergence:  0.30E-03 at (2,1,9)
       Min divergence:  0.19E-05 at (9,9,10)
       Max VN number:   0.31E-01 at (7,9,1)
       Radiation Loss to Boundaries:         0.005 kW
       Mesh    3
       Max CFL number:  0.60E-01 at (1,7,10)
       Max divergence:  0.15E-03 at (1,7,3)
       Min divergence:  0.33E-06 at (19,7,10)
       Max VN number:   0.32E-01 at (1,7,9)
       Radiation Loss to Boundaries:         0.007 kW
       Mesh    4
       Max CFL number:  0.39E-01 at (6,10,2)
       Max divergence:  0.50E-04 at (7,10,2)
       Min divergence: -0.47E-06 at (1,1,3)
       Max VN number:   0.23E-01 at (7,9,1)
       Radiation Loss to Boundaries:         0.005 kW
 
       Time Step     1800   August  3, 2024  18:03:42
       Step Size:    0.505E-01 s, Total Time:     100.70 s
       Pressure Iterations: 1
       Maximum Velocity Error:  0.44E-02 on Mesh 1 at (10,8,8)
       Maximum Pressure Error:  0.50E+00 on Mesh 1 at (7,7,8)
       ---------------------------------------------------------------
       Mesh    1
       Max CFL number:  0.89E+00 at (7,7,7)
       Max divergence:  0.25E+01 at (7,7,1)
       Min divergence: -0.53E+00 at (7,7,4)
       Max VN number:   0.36E+00 at (7,7,5)
       Total Heat Release Rate:              3.002 kW
       Radiation Loss to Boundaries:        -0.471 kW
       Mesh    2
       Max CFL number:  0.68E-01 at (2,1,1)
       Max divergence:  0.15E-03 at (1,1,9)
       Min divergence:  0.16E-05 at (2,10,3)
       Max VN number:   0.39E-01 at (2,2,1)
       Radiation Loss to Boundaries:         0.005 kW
       Mesh    3
       Max CFL number:  0.52E-01 at (1,6,7)
       Max divergence:  0.21E-03 at (1,7,10)
       Min divergence:  0.49E-06 at (19,7,10)
       Max VN number:   0.22E-01 at (1,7,7)
       Radiation Loss to Boundaries:         0.007 kW
       Mesh    4
       Max CFL number:  0.35E-01 at (8,9,1)
       Max divergence:  0.48E-04 at (7,10,2)
       Min divergence: -0.12E-05 at (1,1,2)
       Max VN number:   0.28E-01 at (7,8,1)
       Radiation Loss to Boundaries:         0.005 kW
 
       Time Step     1900   August  3, 2024  18:03:54
       Step Size:    0.491E-01 s, Total Time:     105.93 s
       Pressure Iterations: 1
       Maximum Velocity Error:  0.74E-02 on Mesh 1 at (10,7,9)
       Maximum Pressure Error:  0.24E+01 on Mesh 1 at (7,7,1)
       ---------------------------------------------------------------
       Mesh    1
       Max CFL number:  0.90E+00 at (7,7,10)
       Max divergence:  0.25E+01 at (7,7,1)
       Min divergence: -0.45E+00 at (7,7,5)
       Max VN number:   0.36E+00 at (7,7,6)
       Total Heat Release Rate:              3.048 kW
       Radiation Loss to Boundaries:        -0.472 kW
       Mesh    2
       Max CFL number:  0.64E-01 at (3,1,2)
       Max divergence:  0.24E-03 at (2,1,10)
       Min divergence:  0.19E-05 at (8,9,10)
       Max VN number:   0.32E-01 at (3,2,1)
       Radiation Loss to Boundaries:         0.005 kW
       Mesh    3
       Max CFL number:  0.69E-01 at (1,6,1)
       Max divergence:  0.10E-02 at (1,7,10)
       Min divergence:  0.65E-06 at (18,7,8)
       Max VN number:   0.29E-01 at (7,6,1)
       Radiation Loss to Boundaries:         0.007 kW
       Mesh    4
       Max CFL number:  0.38E-01 at (7,10,1)
       Max divergence:  0.48E-04 at (7,10,2)
       Min divergence: -0.52E-06 at (1,1,2)
       Max VN number:   0.13E-01 at (8,2,1)
       Radiation Loss to Boundaries:         0.005 kW
 
       Time Step     2000   August  3, 2024  18:04:06
       Step Size:    0.541E-01 s, Total Time:     111.24 s
       Pressure Iterations: 1
       Maximum Velocity Error:  0.64E-02 on Mesh 1 at (10,7,9)
       Maximum Pressure Error:  0.16E+01 on Mesh 1 at (7,7,5)
       ---------------------------------------------------------------
       Mesh    1
       Max CFL number:  0.86E+00 at (8,7,9)
       Max divergence:  0.24E+01 at (7,7,1)
       Min divergence: -0.44E+00 at (7,7,4)
       Max VN number:   0.35E+00 at (7,7,4)
       Total Heat Release Rate:              3.065 kW
       Radiation Loss to Boundaries:        -0.470 kW
       Mesh    2
       Max CFL number:  0.75E-01 at (2,1,1)
       Max divergence:  0.64E-03 at (2,1,10)
       Min divergence: -0.22E-05 at (1,10,3)
       Max VN number:   0.33E-01 at (3,1,1)
       Radiation Loss to Boundaries:         0.005 kW
       Mesh    3
       Max CFL number:  0.60E-01 at (1,7,9)
       Max divergence:  0.15E-02 at (1,7,9)
       Min divergence: -0.14E-07 at (20,8,9)
       Max VN number:   0.17E-01 at (4,6,2)
       Radiation Loss to Boundaries:         0.007 kW
       Mesh    4
       Max CFL number:  0.38E-01 at (8,9,2)
       Max divergence:  0.44E-04 at (7,10,2)
       Min divergence: -0.11E-06 at (1,1,1)
       Max VN number:   0.14E-01 at (2,3,1)
       Radiation Loss to Boundaries:         0.005 kW
 
       Time Step     2100   August  3, 2024  18:04:19
       Step Size:    0.493E-01 s, Total Time:     116.42 s
       Pressure Iterations: 1
       Maximum Velocity Error:  0.72E-02 on Mesh 1 at (7,10,8)
       Maximum Pressure Error:  0.18E+01 on Mesh 1 at (7,7,7)
       ---------------------------------------------------------------
       Mesh    1
       Max CFL number:  0.81E+00 at (8,8,10)
       Max divergence:  0.24E+01 at (7,7,1)
       Min divergence: -0.36E+00 at (7,7,4)
       Max VN number:   0.27E+00 at (7,7,3)
       Total Heat Release Rate:              3.036 kW
       Radiation Loss to Boundaries:        -0.495 kW
       Mesh    2
       Max CFL number:  0.66E-01 at (2,1,2)
       Max divergence:  0.11E-02 at (2,1,8)
       Min divergence: -0.27E-05 at (1,10,3)
       Max VN number:   0.24E-01 at (3,1,2)
       Radiation Loss to Boundaries:         0.005 kW
       Mesh    3
       Max CFL number:  0.62E-01 at (2,6,1)
       Max divergence:  0.19E-02 at (1,7,9)
       Min divergence:  0.52E-06 at (17,7,9)
       Max VN number:   0.25E-01 at (1,6,2)
       Radiation Loss to Boundaries:         0.007 kW
       Mesh    4
       Max CFL number:  0.54E-01 at (7,10,1)
       Max divergence:  0.44E-04 at (7,10,2)
       Min divergence:  0.17E-08 at (5,1,2)
       Max VN number:   0.11E-01 at (8,8,7)
       Radiation Loss to Boundaries:         0.005 kW
 
       Time Step     2170   August  3, 2024  18:04:28
       Step Size:    0.161E-02 s, Total Time:     120.00 s
       Pressure Iterations: 1
       Maximum Velocity Error:  0.39E-02 on Mesh 1 at (10,7,1)
       Maximum Pressure Error:  0.62E+03 on Mesh 1 at (7,7,1)
       ---------------------------------------------------------------
       Mesh    1
       Max CFL number:  0.27E-01 at (7,7,9)
       Max divergence:  0.31E+01 at (7,7,1)
       Min divergence: -0.29E+00 at (7,7,5)
       Max VN number:   0.98E-02 at (7,7,4)
       Total Heat Release Rate:              3.721 kW
       Radiation Loss to Boundaries:        -0.496 kW
       Mesh    2
       Max CFL number:  0.20E-02 at (2,1,2)
       Max divergence:  0.16E-03 at (2,1,2)
       Min divergence: -0.16E-05 at (1,10,3)
       Max VN number:   0.11E-02 at (2,1,2)
       Radiation Loss to Boundaries:         0.005 kW
       Mesh    3
       Max CFL number:  0.18E-02 at (1,6,10)
       Max divergence:  0.15E-03 at (1,7,2)
       Min divergence:  0.22E-06 at (18,7,9)
       Max VN number:   0.12E-02 at (2,6,1)
       Radiation Loss to Boundaries:         0.007 kW
       Mesh    4
       Max CFL number:  0.17E-02 at (7,10,1)
       Max divergence:  0.49E-04 at (7,10,1)
       Min divergence:  0.37E-06 at (11,1,1)
       Max VN number:   0.57E-03 at (2,4,1)
       Radiation Loss to Boundaries:         0.005 kW
 


 Time Stepping Wall Clock Time (s):      271.744
 Total Elapsed Wall Clock Time (s):      292.001

STOP: FDS completed successfully (CHID: fdsreader_slcfs)
