
 Fire Dynamics Simulator

 Current Date     : August  7, 2024  16:39:18
 Revision         : FDS6.7.7-4170-g2ce1a34-master
 Revision Date    : Wed Aug 30 18:40:43 2023 -0400
 Compiler         : 
 Compilation Date : sep 01, 2023  15:04:17

 MPI Enabled;    Number of MPI Processes:       1
 OpenMP Enabled; Number of OpenMP Threads:      1

 MPI version: 3.1
 MPI library version: Open MPI v4.0.3, package: Debian OpenMPI, ident: 4.0.3, repo rev: v4.0.3, Mar 03, 2020

 Job TITLE        : Steckler Compartment
 Job ID string    : Steckler


 Grid Dimensions, Mesh     1

   Cells in the X Direction            36
   Cells in the Y Direction            28
   Cells in the Z Direction            22
   Number of Grid Cells             22176


 Physical Dimensions, Mesh     1

   Length (m)                       3.600
   Width  (m)                       2.800
   Height (m)                       2.130
   Initial Time Step (s)            0.108

 Total Number of Grid Cells         22176


 Maximum Cell Aspect Ratio          1.033
 CFL Velocity Norm                      2


 Miscellaneous Parameters

   Time Shrink Factor (s/s)          10.0
   Simulation Start Time (s)          0.0
   Simulation End Time (s)          100.0
   Background Pressure (Pa)     101325.00
   Ambient Temperature (C)          22.00

   3D Cartesian
   VLES Calculation
   Eddy Viscosity Model:  Deardorff (C_DEARDORFF = 0.10)
   Surface BURNER Eddy Viscosity Model:  WALE (C_WALE = 0.60)
   Surface FIBER BOARD Eddy Viscosity Model:  WALE (C_WALE = 0.60)
   Turbulent Prandtl Number:         0.50
   Turbulent Schmidt Number:         0.50


 Pressure solver information

   Solver:                            FFT
   Velocity tolerance (m/s):    4.946E-02
   Press eqn res tol (1/s^2):   2.044E+03
   Max pressure iterations:            10


 Background Stratification

      Z (m)     P_0 (Pa)    TMP_0 (C)
   ------------------------------------
        2.08    101300.78     22.00
        1.98    101301.90     22.00
        1.89    101303.03     22.00
        1.79    101304.15     22.00
        1.69    101305.28     22.00
        1.60    101306.41     22.00
        1.50    101307.53     22.00
        1.40    101308.66     22.00
        1.31    101309.79     22.00
        1.21    101310.91     22.00
        1.11    101312.04     22.00
        1.02    101313.17     22.00
        0.92    101314.29     22.00
        0.82    101315.42     22.00
        0.73    101316.54     22.00
        0.63    101317.67     22.00
        0.53    101318.80     22.00
        0.44    101319.92     22.00
        0.34    101321.05     22.00
        0.24    101322.18     22.00
        0.15    101323.30     22.00
        0.05    101324.43     22.00


 Mass Fraction Transformation Matrix to Convert Species Mixtures (Columns) to Primitive Species (Rows)

                         AIR       METHANE   PRODUCTS
   NITROGEN              0.761877  0.000000  0.720206
   OXYGEN                0.230818  0.000000  0.000000
   CARBON DIOXIDE        0.000591  0.000000  0.150605
   WATER VAPOR           0.006714  0.000000  0.129189
   CARBON MONOXIDE       0.000000  0.000000  0.000000
   SOOT                  0.000000  0.000000  0.000000
   HYDROGEN              0.000000  0.000000  0.000000
   HYDROGEN CYANIDE      0.000000  0.000000  0.000000
   METHANE               0.000000  1.000000  0.000000


 Primitive Species Information

   NITROGEN
   Gas Species
   Molecular Weight (g/mol)                28.01340
   Ambient Density (kg/m^3)                1.157
           Enthalpy of Formation (J/kg)  0.000E+00

   OXYGEN
   Gas Species
   Molecular Weight (g/mol)                31.99880
   Ambient Density (kg/m^3)                1.321
           Enthalpy of Formation (J/kg)  0.000E+00

   CARBON DIOXIDE
   Gas Species
   Molecular Weight (g/mol)                44.00950
   Ambient Density (kg/m^3)                1.817
           Enthalpy of Formation (J/kg) -8.941E+06

   WATER VAPOR
   Gas Species
   Molecular Weight (g/mol)                18.01528
   Ambient Density (kg/m^3)                0.744
           Enthalpy of Formation (J/kg) -1.342E+07

   CARBON MONOXIDE
   Gas Species
   Molecular Weight (g/mol)                28.01010
   Ambient Density (kg/m^3)                1.157
           Enthalpy of Formation (J/kg) -3.946E+06

   SOOT
   Gas Species
   Molecular Weight (g/mol)                12.01070
   Ambient Density (kg/m^3)                0.496
           Enthalpy of Formation (J/kg)  0.000E+00

   HYDROGEN
   Gas Species
   Molecular Weight (g/mol)                 2.01588
   Ambient Density (kg/m^3)                0.083
           Enthalpy of Formation (J/kg)  0.000E+00

   HYDROGEN CYANIDE
   Gas Species
   Molecular Weight (g/mol)                27.02534
   Ambient Density (kg/m^3)                1.116
           Enthalpy of Formation (J/kg)  4.924E+06

   METHANE
   Gas Species
   Molecular Weight (g/mol)                16.04246
   Ambient Density (kg/m^3)                0.662
           Enthalpy of Formation (J/kg) -4.650E+06


 Tracked (Lumped) Species Information

   AIR
   Molecular Weight (g/mol)            28.73867
   Ambient Density (kg/m^3)            1.187
   Initial Mass Fraction               1.000
   Enthalpy of Formation (J/kg)     -9.541E+04

   Sub Species                    Mass Fraction     Mole Fraction
   NITROGEN                       7.618771E-01      7.816020E-01
   OXYGEN                         2.308178E-01      2.073014E-01
   CARBON DIOXIDE                 5.910051E-04      3.859325E-04
   WATER VAPOR                    6.714135E-03      1.071065E-02
 
     Viscosity (kg/m/s) Ambient,  295 K:  1.804E-05
                                  500 K:  2.612E-05
                                 1000 K:  4.125E-05
                                 1500 K:  5.371E-05
                                 2000 K:  6.476E-05
   Therm. Cond. (W/m/K) Ambient,  295 K:  2.568E-02
                                  500 K:  3.813E-02
                                 1000 K:  6.687E-02
                                 1500 K:  9.253E-02
                                 2000 K:  1.153E-01
        Enthalpy (J/kg) Ambient,  295 K: -9.846E+04
                                  500 K:  1.119E+05
                                 1000 K:  6.622E+05
                                 1500 K:  1.261E+06
                                 2000 K:  1.887E+06
    Spec. Heat (J/kg/K) Ambient,  295 K:  1.017E+03
                                  500 K:  1.043E+03
                                 1000 K:  1.157E+03
                                 1500 K:  1.230E+03
                                 2000 K:  1.271E+03
   Diff. Coeff. (m^2/s) Ambient,  295 K:  2.014E-05
                                  500 K:  4.962E-05
                                 1000 K:  1.581E-04
                                 1500 K:  3.096E-04
                                 2000 K:  4.986E-04
 Gibbs Energy Amb. (kJ/mol),  295 K: -5.930E+01
                                  500 K: -1.009E+02
                                 1000 K: -2.119E+02
                                 1500 K: -3.314E+02
                                 2000 K: -4.570E+02

   METHANE
   Molecular Weight (g/mol)            16.04246
   Ambient Density (kg/m^3)            0.662
   Initial Mass Fraction               0.000
   Enthalpy of Formation (J/kg)     -4.650E+06

   Sub Species                    Mass Fraction     Mole Fraction
   METHANE                        1.000000E+00      1.000000E+00
 
     Viscosity (kg/m/s) Ambient,  295 K:  1.103E-05
                                  500 K:  1.677E-05
                                 1000 K:  2.728E-05
                                 1500 K:  3.559E-05
                                 2000 K:  4.290E-05
   Therm. Cond. (W/m/K) Ambient,  295 K:  3.493E-02
                                  500 K:  6.958E-02
                                 1000 K:  1.790E-01
                                 1500 K:  2.880E-01
                                 2000 K:  3.876E-01
        Enthalpy (J/kg) Ambient,  295 K: -4.657E+06
                                  500 K: -4.137E+06
                                 1000 K: -2.239E+06
                                 1500 K:  3.482E+05
                                 2000 K:  3.357E+06
    Spec. Heat (J/kg/K) Ambient,  295 K:  2.218E+03
                                  500 K:  2.904E+03
                                 1000 K:  4.593E+03
                                 1500 K:  5.664E+03
                                 2000 K:  6.323E+03
   Diff. Coeff. (m^2/s) Ambient,  295 K:  2.173E-05
                                  500 K:  5.438E-05
                                 1000 K:  1.750E-04
                                 1500 K:  3.433E-04
                                 2000 K:  5.530E-04
 Gibbs Energy Amb. (kJ/mol),  295 K: -1.296E+02
                                  500 K: -1.700E+02
                                 1000 K: -2.842E+02
                                 1500 K: -4.170E+02
                                 2000 K: -5.650E+02

   PRODUCTS
   Molecular Weight (g/mol)            27.54629
   Ambient Density (kg/m^3)            1.137
   Initial Mass Fraction               0.000
   Enthalpy of Formation (J/kg)     -3.081E+06

   Sub Species                    Mass Fraction     Mole Fraction
   NITROGEN                       7.202061E-01      7.081969E-01
   CARBON DIOXIDE                 1.506045E-01      9.426589E-02
   WATER VAPOR                    1.291894E-01      1.975372E-01
   CARBON MONOXIDE                0.000000E+00      0.000000E+00
   SOOT                           0.000000E+00      0.000000E+00
   HYDROGEN CYANIDE               0.000000E+00      0.000000E+00
 
     Viscosity (kg/m/s) Ambient,  295 K:  1.607E-05
                                  500 K:  2.372E-05
                                 1000 K:  3.886E-05
                                 1500 K:  5.148E-05
                                 2000 K:  6.260E-05
   Therm. Cond. (W/m/K) Ambient,  295 K:  2.359E-02
                                  500 K:  3.624E-02
                                 1000 K:  6.762E-02
                                 1500 K:  9.761E-02
                                 2000 K:  1.247E-01
        Enthalpy (J/kg) Ambient,  295 K: -3.084E+06
                                  500 K: -2.851E+06
                                 1000 K: -2.228E+06
                                 1500 K: -1.537E+06
                                 2000 K: -8.009E+05
    Spec. Heat (J/kg/K) Ambient,  295 K:  1.116E+03
                                  500 K:  1.166E+03
                                 1000 K:  1.323E+03
                                 1500 K:  1.435E+03
                                 2000 K:  1.502E+03
   Diff. Coeff. (m^2/s) Ambient,  295 K:  1.987E-05
                                  500 K:  5.002E-05
                                 1000 K:  1.620E-04
                                 1500 K:  3.187E-04
                                 2000 K:  5.142E-04
 Gibbs Energy Amb. (kJ/mol),  295 K: -1.479E+02
                                  500 K: -1.896E+02
                                 1000 K: -3.016E+02
                                 1500 K: -4.232E+02
                                 2000 K: -5.516E+02


 Gas Phase Reaction Information

      Fuel                                           Heat of Combustion (kJ/kg)
      METHANE                                                        50027.3649

      Primitive Species Stoich. Coeff.
      Species ID                                                          Molar
      NITROGEN                                                        -0.000000
      OXYGEN                                                          -2.000000
      CARBON DIOXIDE                                                   1.000000
      WATER VAPOR                                                      2.000000
      METHANE                                                         -1.000000

      Tracked (Lumped) Species Stoich. Coeff.
      Species ID                                             Molar         Mass
      AIR                                                -9.647789   -17.283172
      METHANE                                            -1.000000    -1.000000
      PRODUCTS                                           10.647789    18.283172

      Reaction Kinetics

      Fast chemistry

      ODE Solver:  EXPLICIT EULER

      Extinction Model:  EXTINCTION 1
      Auto-Ignition Temperature (C):            -273.1
      Critical Flame Temperature (C):           1507.0

      Prescribed Radiative Fraction:             0.200


 Material Information

   1 INSULATION
     Emissivity:                                  0.900
     Density (kg/m3):                             200.0
     Specific Heat (kJ/kg/K) Ambient,  295 K:  1.000E-01
                                       350 K:  1.000E-01
                                       500 K:  1.000E-01
                                       800 K:  1.000E-01
     Therm. Cond. (W/m/K) Ambient,     295 K:  1.000E-01
                                       350 K:  1.000E-01
                                       500 K:  1.000E-01
                                       800 K:  1.000E-01
     Enthalpy (kJ/kg) Ambient,         295 K:  2.950E+01
                                       350 K:  3.500E+01
                                       500 K:  5.000E+01
                                       800 K:  8.000E+01


 Surface Conditions

   0 INERT

   1 BURNER
     Wall or Vent Temperature (C)   100.0
     HRR Per Unit Area (kW/m2)       1048.3
     METHANE Mass Flux (kg/s/m2)   2.095E-02

   2 FIBER BOARD (DEFAULT)
     Material List
          1  INSULATION
     Layer  1
        Thickness   (m):  0.01300
        Density (kg/m3):   200.00
        INSULATION, Mass fraction:    1.00
     Reaction products considered from the first  0.50 layers.
     Total surface density     2.600 kg/m2
     Solid Phase Node, Layer, Coordinates(m):
                    0      1       0.0000000
                    1      1       0.0021667
                    2      1       0.0065000
                    3      1       0.0108333
                    4      1       0.0130000
     Exposed Backing

   3 OPEN
     Passive Vent to Atmosphere

   4 MIRROR
     Symmetry Plane

   5 INTERPOLATED

   6 PERIODIC

   7 HVAC

   8 MASSLESS TRACER

   9 DROPLET

  10 MASSLESS TARGET

  11 PERIODIC FLOW ONLY


 Lagrangian Particle Classes


 Cut-off Density and Temperature

    Minimum Temperature:  -259.1 C
    Maximum Temperature:  2726.8 C
    Minimum Density:  1.187E-01 kg/m3
    Maximum Density:  5.003E+01 kg/m3


 Device Information

   1 ID: TC_RoomV-1
     QUANTITY: TEMPERATURE
     Coordinates (X,Y,Z):    1.000000E-01    0.000000E+00    2.000000E-02
     TEMPORAL STATISTIC: TIME AVERAGE
   2 ID: TC_RoomV-2
     QUANTITY: TEMPERATURE
     Coordinates (X,Y,Z):    1.000000E-01    0.000000E+00    6.860465E-02
     TEMPORAL STATISTIC: TIME AVERAGE
   3 ID: TC_RoomV-3
     QUANTITY: TEMPERATURE
     Coordinates (X,Y,Z):    1.000000E-01    0.000000E+00    1.172093E-01
     TEMPORAL STATISTIC: TIME AVERAGE
   4 ID: TC_RoomV-4
     QUANTITY: TEMPERATURE
     Coordinates (X,Y,Z):    1.000000E-01    0.000000E+00    1.658140E-01
     TEMPORAL STATISTIC: TIME AVERAGE
   5 ID: TC_RoomV-5
     QUANTITY: TEMPERATURE
     Coordinates (X,Y,Z):    1.000000E-01    0.000000E+00    2.144186E-01
     TEMPORAL STATISTIC: TIME AVERAGE
   6 ID: TC_RoomV-6
     QUANTITY: TEMPERATURE
     Coordinates (X,Y,Z):    1.000000E-01    0.000000E+00    2.630233E-01
     TEMPORAL STATISTIC: TIME AVERAGE
   7 ID: TC_RoomV-7
     QUANTITY: TEMPERATURE
     Coordinates (X,Y,Z):    1.000000E-01    0.000000E+00    3.116279E-01
     TEMPORAL STATISTIC: TIME AVERAGE
   8 ID: TC_RoomV-8
     QUANTITY: TEMPERATURE
     Coordinates (X,Y,Z):    1.000000E-01    0.000000E+00    3.602326E-01
     TEMPORAL STATISTIC: TIME AVERAGE
   9 ID: TC_RoomV-9
     QUANTITY: TEMPERATURE
     Coordinates (X,Y,Z):    1.000000E-01    0.000000E+00    4.088372E-01
     TEMPORAL STATISTIC: TIME AVERAGE
  10 ID: TC_RoomV-10
     QUANTITY: TEMPERATURE
     Coordinates (X,Y,Z):    1.000000E-01    0.000000E+00    4.574419E-01
     TEMPORAL STATISTIC: TIME AVERAGE
  11 ID: TC_RoomV-11
     QUANTITY: TEMPERATURE
     Coordinates (X,Y,Z):    1.000000E-01    0.000000E+00    5.060465E-01
     TEMPORAL STATISTIC: TIME AVERAGE
  12 ID: TC_RoomV-12
     QUANTITY: TEMPERATURE
     Coordinates (X,Y,Z):    1.000000E-01    0.000000E+00    5.546512E-01
     TEMPORAL STATISTIC: TIME AVERAGE
  13 ID: TC_RoomV-13
     QUANTITY: TEMPERATURE
     Coordinates (X,Y,Z):    1.000000E-01    0.000000E+00    6.032558E-01
     TEMPORAL STATISTIC: TIME AVERAGE
  14 ID: TC_RoomV-14
     QUANTITY: TEMPERATURE
     Coordinates (X,Y,Z):    1.000000E-01    0.000000E+00    6.518605E-01
     TEMPORAL STATISTIC: TIME AVERAGE
  15 ID: TC_RoomV-15
     QUANTITY: TEMPERATURE
     Coordinates (X,Y,Z):    1.000000E-01    0.000000E+00    7.004651E-01
     TEMPORAL STATISTIC: TIME AVERAGE
  16 ID: TC_RoomV-16
     QUANTITY: TEMPERATURE
     Coordinates (X,Y,Z):    1.000000E-01    0.000000E+00    7.490698E-01
     TEMPORAL STATISTIC: TIME AVERAGE
  17 ID: TC_RoomV-17
     QUANTITY: TEMPERATURE
     Coordinates (X,Y,Z):    1.000000E-01    0.000000E+00    7.976744E-01
     TEMPORAL STATISTIC: TIME AVERAGE
  18 ID: TC_RoomV-18
     QUANTITY: TEMPERATURE
     Coordinates (X,Y,Z):    1.000000E-01    0.000000E+00    8.462791E-01
     TEMPORAL STATISTIC: TIME AVERAGE
  19 ID: TC_RoomV-19
     QUANTITY: TEMPERATURE
     Coordinates (X,Y,Z):    1.000000E-01    0.000000E+00    8.948837E-01
     TEMPORAL STATISTIC: TIME AVERAGE
  20 ID: TC_RoomV-20
     QUANTITY: TEMPERATURE
     Coordinates (X,Y,Z):    1.000000E-01    0.000000E+00    9.434884E-01
     TEMPORAL STATISTIC: TIME AVERAGE
  21 ID: TC_RoomV-21
     QUANTITY: TEMPERATURE
     Coordinates (X,Y,Z):    1.000000E-01    0.000000E+00    9.920930E-01
     TEMPORAL STATISTIC: TIME AVERAGE
  22 ID: TC_RoomV-22
     QUANTITY: TEMPERATURE
     Coordinates (X,Y,Z):    1.000000E-01    0.000000E+00    1.040698E+00
     TEMPORAL STATISTIC: TIME AVERAGE
  23 ID: TC_RoomV-23
     QUANTITY: TEMPERATURE
     Coordinates (X,Y,Z):    1.000000E-01    0.000000E+00    1.089302E+00
     TEMPORAL STATISTIC: TIME AVERAGE
  24 ID: TC_RoomV-24
     QUANTITY: TEMPERATURE
     Coordinates (X,Y,Z):    1.000000E-01    0.000000E+00    1.137907E+00
     TEMPORAL STATISTIC: TIME AVERAGE
  25 ID: TC_RoomV-25
     QUANTITY: TEMPERATURE
     Coordinates (X,Y,Z):    1.000000E-01    0.000000E+00    1.186512E+00
     TEMPORAL STATISTIC: TIME AVERAGE
  26 ID: TC_RoomV-26
     QUANTITY: TEMPERATURE
     Coordinates (X,Y,Z):    1.000000E-01    0.000000E+00    1.235116E+00
     TEMPORAL STATISTIC: TIME AVERAGE
  27 ID: TC_RoomV-27
     QUANTITY: TEMPERATURE
     Coordinates (X,Y,Z):    1.000000E-01    0.000000E+00    1.283721E+00
     TEMPORAL STATISTIC: TIME AVERAGE
  28 ID: TC_RoomV-28
     QUANTITY: TEMPERATURE
     Coordinates (X,Y,Z):    1.000000E-01    0.000000E+00    1.332326E+00
     TEMPORAL STATISTIC: TIME AVERAGE
  29 ID: TC_RoomV-29
     QUANTITY: TEMPERATURE
     Coordinates (X,Y,Z):    1.000000E-01    0.000000E+00    1.380930E+00
     TEMPORAL STATISTIC: TIME AVERAGE
  30 ID: TC_RoomV-30
     QUANTITY: TEMPERATURE
     Coordinates (X,Y,Z):    1.000000E-01    0.000000E+00    1.429535E+00
     TEMPORAL STATISTIC: TIME AVERAGE
  31 ID: TC_RoomV-31
     QUANTITY: TEMPERATURE
     Coordinates (X,Y,Z):    1.000000E-01    0.000000E+00    1.478140E+00
     TEMPORAL STATISTIC: TIME AVERAGE
  32 ID: TC_RoomV-32
     QUANTITY: TEMPERATURE
     Coordinates (X,Y,Z):    1.000000E-01    0.000000E+00    1.526744E+00
     TEMPORAL STATISTIC: TIME AVERAGE
  33 ID: TC_RoomV-33
     QUANTITY: TEMPERATURE
     Coordinates (X,Y,Z):    1.000000E-01    0.000000E+00    1.575349E+00
     TEMPORAL STATISTIC: TIME AVERAGE
  34 ID: TC_RoomV-34
     QUANTITY: TEMPERATURE
     Coordinates (X,Y,Z):    1.000000E-01    0.000000E+00    1.623953E+00
     TEMPORAL STATISTIC: TIME AVERAGE
  35 ID: TC_RoomV-35
     QUANTITY: TEMPERATURE
     Coordinates (X,Y,Z):    1.000000E-01    0.000000E+00    1.672558E+00
     TEMPORAL STATISTIC: TIME AVERAGE
  36 ID: TC_RoomV-36
     QUANTITY: TEMPERATURE
     Coordinates (X,Y,Z):    1.000000E-01    0.000000E+00    1.721163E+00
     TEMPORAL STATISTIC: TIME AVERAGE
  37 ID: TC_RoomV-37
     QUANTITY: TEMPERATURE
     Coordinates (X,Y,Z):    1.000000E-01    0.000000E+00    1.769767E+00
     TEMPORAL STATISTIC: TIME AVERAGE
  38 ID: TC_RoomV-38
     QUANTITY: TEMPERATURE
     Coordinates (X,Y,Z):    1.000000E-01    0.000000E+00    1.818372E+00
     TEMPORAL STATISTIC: TIME AVERAGE
  39 ID: TC_RoomV-39
     QUANTITY: TEMPERATURE
     Coordinates (X,Y,Z):    1.000000E-01    0.000000E+00    1.866977E+00
     TEMPORAL STATISTIC: TIME AVERAGE
  40 ID: TC_RoomV-40
     QUANTITY: TEMPERATURE
     Coordinates (X,Y,Z):    1.000000E-01    0.000000E+00    1.915581E+00
     TEMPORAL STATISTIC: TIME AVERAGE
  41 ID: TC_RoomV-41
     QUANTITY: TEMPERATURE
     Coordinates (X,Y,Z):    1.000000E-01    0.000000E+00    1.964186E+00
     TEMPORAL STATISTIC: TIME AVERAGE
  42 ID: TC_RoomV-42
     QUANTITY: TEMPERATURE
     Coordinates (X,Y,Z):    1.000000E-01    0.000000E+00    2.012791E+00
     TEMPORAL STATISTIC: TIME AVERAGE
  43 ID: TC_RoomV-43
     QUANTITY: TEMPERATURE
     Coordinates (X,Y,Z):    1.000000E-01    0.000000E+00    2.061395E+00
     TEMPORAL STATISTIC: TIME AVERAGE
  44 ID: TC_RoomV-44
     QUANTITY: TEMPERATURE
     Coordinates (X,Y,Z):    1.000000E-01    0.000000E+00    2.110000E+00
     TEMPORAL STATISTIC: TIME AVERAGE
  45 ID: TC_RoomS
     QUANTITY: TEMPERATURE
     Coordinates (X,Y,Z):    1.000000E-01    0.000000E+00    2.000000E-02
     TEMPORAL STATISTIC: RUNNING AVERAGE
  46 ID: TC_RoomS
     QUANTITY: TEMPERATURE
     Coordinates (X,Y,Z):    1.000000E-01    0.000000E+00    6.860465E-02
     TEMPORAL STATISTIC: RUNNING AVERAGE
  47 ID: TC_RoomS
     QUANTITY: TEMPERATURE
     Coordinates (X,Y,Z):    1.000000E-01    0.000000E+00    1.172093E-01
     TEMPORAL STATISTIC: RUNNING AVERAGE
  48 ID: TC_RoomS
     QUANTITY: TEMPERATURE
     Coordinates (X,Y,Z):    1.000000E-01    0.000000E+00    1.658140E-01
     TEMPORAL STATISTIC: RUNNING AVERAGE
  49 ID: TC_RoomS
     QUANTITY: TEMPERATURE
     Coordinates (X,Y,Z):    1.000000E-01    0.000000E+00    2.144186E-01
     TEMPORAL STATISTIC: RUNNING AVERAGE
  50 ID: TC_RoomS
     QUANTITY: TEMPERATURE
     Coordinates (X,Y,Z):    1.000000E-01    0.000000E+00    2.630233E-01
     TEMPORAL STATISTIC: RUNNING AVERAGE
  51 ID: TC_RoomS
     QUANTITY: TEMPERATURE
     Coordinates (X,Y,Z):    1.000000E-01    0.000000E+00    3.116279E-01
     TEMPORAL STATISTIC: RUNNING AVERAGE
  52 ID: TC_RoomS
     QUANTITY: TEMPERATURE
     Coordinates (X,Y,Z):    1.000000E-01    0.000000E+00    3.602326E-01
     TEMPORAL STATISTIC: RUNNING AVERAGE
  53 ID: TC_RoomS
     QUANTITY: TEMPERATURE
     Coordinates (X,Y,Z):    1.000000E-01    0.000000E+00    4.088372E-01
     TEMPORAL STATISTIC: RUNNING AVERAGE
  54 ID: TC_RoomS
     QUANTITY: TEMPERATURE
     Coordinates (X,Y,Z):    1.000000E-01    0.000000E+00    4.574419E-01
     TEMPORAL STATISTIC: RUNNING AVERAGE
  55 ID: TC_RoomS
     QUANTITY: TEMPERATURE
     Coordinates (X,Y,Z):    1.000000E-01    0.000000E+00    5.060465E-01
     TEMPORAL STATISTIC: RUNNING AVERAGE
  56 ID: TC_RoomS
     QUANTITY: TEMPERATURE
     Coordinates (X,Y,Z):    1.000000E-01    0.000000E+00    5.546512E-01
     TEMPORAL STATISTIC: RUNNING AVERAGE
  57 ID: TC_RoomS
     QUANTITY: TEMPERATURE
     Coordinates (X,Y,Z):    1.000000E-01    0.000000E+00    6.032558E-01
     TEMPORAL STATISTIC: RUNNING AVERAGE
  58 ID: TC_RoomS
     QUANTITY: TEMPERATURE
     Coordinates (X,Y,Z):    1.000000E-01    0.000000E+00    6.518605E-01
     TEMPORAL STATISTIC: RUNNING AVERAGE
  59 ID: TC_RoomS
     QUANTITY: TEMPERATURE
     Coordinates (X,Y,Z):    1.000000E-01    0.000000E+00    7.004651E-01
     TEMPORAL STATISTIC: RUNNING AVERAGE
  60 ID: TC_RoomS
     QUANTITY: TEMPERATURE
     Coordinates (X,Y,Z):    1.000000E-01    0.000000E+00    7.490698E-01
     TEMPORAL STATISTIC: RUNNING AVERAGE
  61 ID: TC_RoomS
     QUANTITY: TEMPERATURE
     Coordinates (X,Y,Z):    1.000000E-01    0.000000E+00    7.976744E-01
     TEMPORAL STATISTIC: RUNNING AVERAGE
  62 ID: TC_RoomS
     QUANTITY: TEMPERATURE
     Coordinates (X,Y,Z):    1.000000E-01    0.000000E+00    8.462791E-01
     TEMPORAL STATISTIC: RUNNING AVERAGE
  63 ID: TC_RoomS
     QUANTITY: TEMPERATURE
     Coordinates (X,Y,Z):    1.000000E-01    0.000000E+00    8.948837E-01
     TEMPORAL STATISTIC: RUNNING AVERAGE
  64 ID: TC_RoomS
     QUANTITY: TEMPERATURE
     Coordinates (X,Y,Z):    1.000000E-01    0.000000E+00    9.434884E-01
     TEMPORAL STATISTIC: RUNNING AVERAGE
  65 ID: TC_RoomS
     QUANTITY: TEMPERATURE
     Coordinates (X,Y,Z):    1.000000E-01    0.000000E+00    9.920930E-01
     TEMPORAL STATISTIC: RUNNING AVERAGE
  66 ID: TC_RoomS
     QUANTITY: TEMPERATURE
     Coordinates (X,Y,Z):    1.000000E-01    0.000000E+00    1.040698E+00
     TEMPORAL STATISTIC: RUNNING AVERAGE
  67 ID: TC_RoomS
     QUANTITY: TEMPERATURE
     Coordinates (X,Y,Z):    1.000000E-01    0.000000E+00    1.089302E+00
     TEMPORAL STATISTIC: RUNNING AVERAGE
  68 ID: TC_RoomS
     QUANTITY: TEMPERATURE
     Coordinates (X,Y,Z):    1.000000E-01    0.000000E+00    1.137907E+00
     TEMPORAL STATISTIC: RUNNING AVERAGE
  69 ID: TC_RoomS
     QUANTITY: TEMPERATURE
     Coordinates (X,Y,Z):    1.000000E-01    0.000000E+00    1.186512E+00
     TEMPORAL STATISTIC: RUNNING AVERAGE
  70 ID: TC_RoomS
     QUANTITY: TEMPERATURE
     Coordinates (X,Y,Z):    1.000000E-01    0.000000E+00    1.235116E+00
     TEMPORAL STATISTIC: RUNNING AVERAGE
  71 ID: TC_RoomS
     QUANTITY: TEMPERATURE
     Coordinates (X,Y,Z):    1.000000E-01    0.000000E+00    1.283721E+00
     TEMPORAL STATISTIC: RUNNING AVERAGE
  72 ID: TC_RoomS
     QUANTITY: TEMPERATURE
     Coordinates (X,Y,Z):    1.000000E-01    0.000000E+00    1.332326E+00
     TEMPORAL STATISTIC: RUNNING AVERAGE
  73 ID: TC_RoomS
     QUANTITY: TEMPERATURE
     Coordinates (X,Y,Z):    1.000000E-01    0.000000E+00    1.380930E+00
     TEMPORAL STATISTIC: RUNNING AVERAGE
  74 ID: TC_RoomS
     QUANTITY: TEMPERATURE
     Coordinates (X,Y,Z):    1.000000E-01    0.000000E+00    1.429535E+00
     TEMPORAL STATISTIC: RUNNING AVERAGE
  75 ID: TC_RoomS
     QUANTITY: TEMPERATURE
     Coordinates (X,Y,Z):    1.000000E-01    0.000000E+00    1.478140E+00
     TEMPORAL STATISTIC: RUNNING AVERAGE
  76 ID: TC_RoomS
     QUANTITY: TEMPERATURE
     Coordinates (X,Y,Z):    1.000000E-01    0.000000E+00    1.526744E+00
     TEMPORAL STATISTIC: RUNNING AVERAGE
  77 ID: TC_RoomS
     QUANTITY: TEMPERATURE
     Coordinates (X,Y,Z):    1.000000E-01    0.000000E+00    1.575349E+00
     TEMPORAL STATISTIC: RUNNING AVERAGE
  78 ID: TC_RoomS
     QUANTITY: TEMPERATURE
     Coordinates (X,Y,Z):    1.000000E-01    0.000000E+00    1.623953E+00
     TEMPORAL STATISTIC: RUNNING AVERAGE
  79 ID: TC_RoomS
     QUANTITY: TEMPERATURE
     Coordinates (X,Y,Z):    1.000000E-01    0.000000E+00    1.672558E+00
     TEMPORAL STATISTIC: RUNNING AVERAGE
  80 ID: TC_RoomS
     QUANTITY: TEMPERATURE
     Coordinates (X,Y,Z):    1.000000E-01    0.000000E+00    1.721163E+00
     TEMPORAL STATISTIC: RUNNING AVERAGE
  81 ID: TC_RoomS
     QUANTITY: TEMPERATURE
     Coordinates (X,Y,Z):    1.000000E-01    0.000000E+00    1.769767E+00
     TEMPORAL STATISTIC: RUNNING AVERAGE
  82 ID: TC_RoomS
     QUANTITY: TEMPERATURE
     Coordinates (X,Y,Z):    1.000000E-01    0.000000E+00    1.818372E+00
     TEMPORAL STATISTIC: RUNNING AVERAGE
  83 ID: TC_RoomS
     QUANTITY: TEMPERATURE
     Coordinates (X,Y,Z):    1.000000E-01    0.000000E+00    1.866977E+00
     TEMPORAL STATISTIC: RUNNING AVERAGE
  84 ID: TC_RoomS
     QUANTITY: TEMPERATURE
     Coordinates (X,Y,Z):    1.000000E-01    0.000000E+00    1.915581E+00
     TEMPORAL STATISTIC: RUNNING AVERAGE
  85 ID: TC_RoomS
     QUANTITY: TEMPERATURE
     Coordinates (X,Y,Z):    1.000000E-01    0.000000E+00    1.964186E+00
     TEMPORAL STATISTIC: RUNNING AVERAGE
  86 ID: TC_RoomS
     QUANTITY: TEMPERATURE
     Coordinates (X,Y,Z):    1.000000E-01    0.000000E+00    2.012791E+00
     TEMPORAL STATISTIC: RUNNING AVERAGE
  87 ID: TC_RoomS
     QUANTITY: TEMPERATURE
     Coordinates (X,Y,Z):    1.000000E-01    0.000000E+00    2.061395E+00
     TEMPORAL STATISTIC: RUNNING AVERAGE
  88 ID: TC_RoomS
     QUANTITY: TEMPERATURE
     Coordinates (X,Y,Z):    1.000000E-01    0.000000E+00    2.110000E+00
     TEMPORAL STATISTIC: RUNNING AVERAGE
  89 ID: TC_Door
     QUANTITY: TEMPERATURE
     Coordinates (X,Y,Z):    2.850000E+00    0.000000E+00    2.000000E-02
     TEMPORAL STATISTIC: RUNNING AVERAGE
  90 ID: TC_Door
     QUANTITY: TEMPERATURE
     Coordinates (X,Y,Z):    2.850000E+00    0.000000E+00    6.864865E-02
     TEMPORAL STATISTIC: RUNNING AVERAGE
  91 ID: TC_Door
     QUANTITY: TEMPERATURE
     Coordinates (X,Y,Z):    2.850000E+00    0.000000E+00    1.172973E-01
     TEMPORAL STATISTIC: RUNNING AVERAGE
  92 ID: TC_Door
     QUANTITY: TEMPERATURE
     Coordinates (X,Y,Z):    2.850000E+00    0.000000E+00    1.659459E-01
     TEMPORAL STATISTIC: RUNNING AVERAGE
  93 ID: TC_Door
     QUANTITY: TEMPERATURE
     Coordinates (X,Y,Z):    2.850000E+00    0.000000E+00    2.145946E-01
     TEMPORAL STATISTIC: RUNNING AVERAGE
  94 ID: TC_Door
     QUANTITY: TEMPERATURE
     Coordinates (X,Y,Z):    2.850000E+00    0.000000E+00    2.632432E-01
     TEMPORAL STATISTIC: RUNNING AVERAGE
  95 ID: TC_Door
     QUANTITY: TEMPERATURE
     Coordinates (X,Y,Z):    2.850000E+00    0.000000E+00    3.118919E-01
     TEMPORAL STATISTIC: RUNNING AVERAGE
  96 ID: TC_Door
     QUANTITY: TEMPERATURE
     Coordinates (X,Y,Z):    2.850000E+00    0.000000E+00    3.605405E-01
     TEMPORAL STATISTIC: RUNNING AVERAGE
  97 ID: TC_Door
     QUANTITY: TEMPERATURE
     Coordinates (X,Y,Z):    2.850000E+00    0.000000E+00    4.091892E-01
     TEMPORAL STATISTIC: RUNNING AVERAGE
  98 ID: TC_Door
     QUANTITY: TEMPERATURE
     Coordinates (X,Y,Z):    2.850000E+00    0.000000E+00    4.578378E-01
     TEMPORAL STATISTIC: RUNNING AVERAGE
  99 ID: TC_Door
     QUANTITY: TEMPERATURE
     Coordinates (X,Y,Z):    2.850000E+00    0.000000E+00    5.064865E-01
     TEMPORAL STATISTIC: RUNNING AVERAGE
 100 ID: TC_Door
     QUANTITY: TEMPERATURE
     Coordinates (X,Y,Z):    2.850000E+00    0.000000E+00    5.551351E-01
     TEMPORAL STATISTIC: RUNNING AVERAGE
 101 ID: TC_Door
     QUANTITY: TEMPERATURE
     Coordinates (X,Y,Z):    2.850000E+00    0.000000E+00    6.037838E-01
     TEMPORAL STATISTIC: RUNNING AVERAGE
 102 ID: TC_Door
     QUANTITY: TEMPERATURE
     Coordinates (X,Y,Z):    2.850000E+00    0.000000E+00    6.524324E-01
     TEMPORAL STATISTIC: RUNNING AVERAGE
 103 ID: TC_Door
     QUANTITY: TEMPERATURE
     Coordinates (X,Y,Z):    2.850000E+00    0.000000E+00    7.010811E-01
     TEMPORAL STATISTIC: RUNNING AVERAGE
 104 ID: TC_Door
     QUANTITY: TEMPERATURE
     Coordinates (X,Y,Z):    2.850000E+00    0.000000E+00    7.497297E-01
     TEMPORAL STATISTIC: RUNNING AVERAGE
 105 ID: TC_Door
     QUANTITY: TEMPERATURE
     Coordinates (X,Y,Z):    2.850000E+00    0.000000E+00    7.983784E-01
     TEMPORAL STATISTIC: RUNNING AVERAGE
 106 ID: TC_Door
     QUANTITY: TEMPERATURE
     Coordinates (X,Y,Z):    2.850000E+00    0.000000E+00    8.470270E-01
     TEMPORAL STATISTIC: RUNNING AVERAGE
 107 ID: TC_Door
     QUANTITY: TEMPERATURE
     Coordinates (X,Y,Z):    2.850000E+00    0.000000E+00    8.956757E-01
     TEMPORAL STATISTIC: RUNNING AVERAGE
 108 ID: TC_Door
     QUANTITY: TEMPERATURE
     Coordinates (X,Y,Z):    2.850000E+00    0.000000E+00    9.443243E-01
     TEMPORAL STATISTIC: RUNNING AVERAGE
 109 ID: TC_Door
     QUANTITY: TEMPERATURE
     Coordinates (X,Y,Z):    2.850000E+00    0.000000E+00    9.929730E-01
     TEMPORAL STATISTIC: RUNNING AVERAGE
 110 ID: TC_Door
     QUANTITY: TEMPERATURE
     Coordinates (X,Y,Z):    2.850000E+00    0.000000E+00    1.041622E+00
     TEMPORAL STATISTIC: RUNNING AVERAGE
 111 ID: TC_Door
     QUANTITY: TEMPERATURE
     Coordinates (X,Y,Z):    2.850000E+00    0.000000E+00    1.090270E+00
     TEMPORAL STATISTIC: RUNNING AVERAGE
 112 ID: TC_Door
     QUANTITY: TEMPERATURE
     Coordinates (X,Y,Z):    2.850000E+00    0.000000E+00    1.138919E+00
     TEMPORAL STATISTIC: RUNNING AVERAGE
 113 ID: TC_Door
     QUANTITY: TEMPERATURE
     Coordinates (X,Y,Z):    2.850000E+00    0.000000E+00    1.187568E+00
     TEMPORAL STATISTIC: RUNNING AVERAGE
 114 ID: TC_Door
     QUANTITY: TEMPERATURE
     Coordinates (X,Y,Z):    2.850000E+00    0.000000E+00    1.236216E+00
     TEMPORAL STATISTIC: RUNNING AVERAGE
 115 ID: TC_Door
     QUANTITY: TEMPERATURE
     Coordinates (X,Y,Z):    2.850000E+00    0.000000E+00    1.284865E+00
     TEMPORAL STATISTIC: RUNNING AVERAGE
 116 ID: TC_Door
     QUANTITY: TEMPERATURE
     Coordinates (X,Y,Z):    2.850000E+00    0.000000E+00    1.333514E+00
     TEMPORAL STATISTIC: RUNNING AVERAGE
 117 ID: TC_Door
     QUANTITY: TEMPERATURE
     Coordinates (X,Y,Z):    2.850000E+00    0.000000E+00    1.382162E+00
     TEMPORAL STATISTIC: RUNNING AVERAGE
 118 ID: TC_Door
     QUANTITY: TEMPERATURE
     Coordinates (X,Y,Z):    2.850000E+00    0.000000E+00    1.430811E+00
     TEMPORAL STATISTIC: RUNNING AVERAGE
 119 ID: TC_Door
     QUANTITY: TEMPERATURE
     Coordinates (X,Y,Z):    2.850000E+00    0.000000E+00    1.479459E+00
     TEMPORAL STATISTIC: RUNNING AVERAGE
 120 ID: TC_Door
     QUANTITY: TEMPERATURE
     Coordinates (X,Y,Z):    2.850000E+00    0.000000E+00    1.528108E+00
     TEMPORAL STATISTIC: RUNNING AVERAGE
 121 ID: TC_Door
     QUANTITY: TEMPERATURE
     Coordinates (X,Y,Z):    2.850000E+00    0.000000E+00    1.576757E+00
     TEMPORAL STATISTIC: RUNNING AVERAGE
 122 ID: TC_Door
     QUANTITY: TEMPERATURE
     Coordinates (X,Y,Z):    2.850000E+00    0.000000E+00    1.625405E+00
     TEMPORAL STATISTIC: RUNNING AVERAGE
 123 ID: TC_Door
     QUANTITY: TEMPERATURE
     Coordinates (X,Y,Z):    2.850000E+00    0.000000E+00    1.674054E+00
     TEMPORAL STATISTIC: RUNNING AVERAGE
 124 ID: TC_Door
     QUANTITY: TEMPERATURE
     Coordinates (X,Y,Z):    2.850000E+00    0.000000E+00    1.722703E+00
     TEMPORAL STATISTIC: RUNNING AVERAGE
 125 ID: TC_Door
     QUANTITY: TEMPERATURE
     Coordinates (X,Y,Z):    2.850000E+00    0.000000E+00    1.771351E+00
     TEMPORAL STATISTIC: RUNNING AVERAGE
 126 ID: TC_Door
     QUANTITY: TEMPERATURE
     Coordinates (X,Y,Z):    2.850000E+00    0.000000E+00    1.820000E+00
     TEMPORAL STATISTIC: RUNNING AVERAGE
 127 ID: BP_Door
     QUANTITY: VELOCITY
     Coordinates (X,Y,Z):    2.850000E+00    0.000000E+00    2.000000E-02
     TEMPORAL STATISTIC: RUNNING AVERAGE
 128 ID: BP_Door
     QUANTITY: VELOCITY
     Coordinates (X,Y,Z):    2.850000E+00    0.000000E+00    6.864865E-02
     TEMPORAL STATISTIC: RUNNING AVERAGE
 129 ID: BP_Door
     QUANTITY: VELOCITY
     Coordinates (X,Y,Z):    2.850000E+00    0.000000E+00    1.172973E-01
     TEMPORAL STATISTIC: RUNNING AVERAGE
 130 ID: BP_Door
     QUANTITY: VELOCITY
     Coordinates (X,Y,Z):    2.850000E+00    0.000000E+00    1.659459E-01
     TEMPORAL STATISTIC: RUNNING AVERAGE
 131 ID: BP_Door
     QUANTITY: VELOCITY
     Coordinates (X,Y,Z):    2.850000E+00    0.000000E+00    2.145946E-01
     TEMPORAL STATISTIC: RUNNING AVERAGE
 132 ID: BP_Door
     QUANTITY: VELOCITY
     Coordinates (X,Y,Z):    2.850000E+00    0.000000E+00    2.632432E-01
     TEMPORAL STATISTIC: RUNNING AVERAGE
 133 ID: BP_Door
     QUANTITY: VELOCITY
     Coordinates (X,Y,Z):    2.850000E+00    0.000000E+00    3.118919E-01
     TEMPORAL STATISTIC: RUNNING AVERAGE
 134 ID: BP_Door
     QUANTITY: VELOCITY
     Coordinates (X,Y,Z):    2.850000E+00    0.000000E+00    3.605405E-01
     TEMPORAL STATISTIC: RUNNING AVERAGE
 135 ID: BP_Door
     QUANTITY: VELOCITY
     Coordinates (X,Y,Z):    2.850000E+00    0.000000E+00    4.091892E-01
     TEMPORAL STATISTIC: RUNNING AVERAGE
 136 ID: BP_Door
     QUANTITY: VELOCITY
     Coordinates (X,Y,Z):    2.850000E+00    0.000000E+00    4.578378E-01
     TEMPORAL STATISTIC: RUNNING AVERAGE
 137 ID: BP_Door
     QUANTITY: VELOCITY
     Coordinates (X,Y,Z):    2.850000E+00    0.000000E+00    5.064865E-01
     TEMPORAL STATISTIC: RUNNING AVERAGE
 138 ID: BP_Door
     QUANTITY: VELOCITY
     Coordinates (X,Y,Z):    2.850000E+00    0.000000E+00    5.551351E-01
     TEMPORAL STATISTIC: RUNNING AVERAGE
 139 ID: BP_Door
     QUANTITY: VELOCITY
     Coordinates (X,Y,Z):    2.850000E+00    0.000000E+00    6.037838E-01
     TEMPORAL STATISTIC: RUNNING AVERAGE
 140 ID: BP_Door
     QUANTITY: VELOCITY
     Coordinates (X,Y,Z):    2.850000E+00    0.000000E+00    6.524324E-01
     TEMPORAL STATISTIC: RUNNING AVERAGE
 141 ID: BP_Door
     QUANTITY: VELOCITY
     Coordinates (X,Y,Z):    2.850000E+00    0.000000E+00    7.010811E-01
     TEMPORAL STATISTIC: RUNNING AVERAGE
 142 ID: BP_Door
     QUANTITY: VELOCITY
     Coordinates (X,Y,Z):    2.850000E+00    0.000000E+00    7.497297E-01
     TEMPORAL STATISTIC: RUNNING AVERAGE
 143 ID: BP_Door
     QUANTITY: VELOCITY
     Coordinates (X,Y,Z):    2.850000E+00    0.000000E+00    7.983784E-01
     TEMPORAL STATISTIC: RUNNING AVERAGE
 144 ID: BP_Door
     QUANTITY: VELOCITY
     Coordinates (X,Y,Z):    2.850000E+00    0.000000E+00    8.470270E-01
     TEMPORAL STATISTIC: RUNNING AVERAGE
 145 ID: BP_Door
     QUANTITY: VELOCITY
     Coordinates (X,Y,Z):    2.850000E+00    0.000000E+00    8.956757E-01
     TEMPORAL STATISTIC: RUNNING AVERAGE
 146 ID: BP_Door
     QUANTITY: VELOCITY
     Coordinates (X,Y,Z):    2.850000E+00    0.000000E+00    9.443243E-01
     TEMPORAL STATISTIC: RUNNING AVERAGE
 147 ID: BP_Door
     QUANTITY: VELOCITY
     Coordinates (X,Y,Z):    2.850000E+00    0.000000E+00    9.929730E-01
     TEMPORAL STATISTIC: RUNNING AVERAGE
 148 ID: BP_Door
     QUANTITY: VELOCITY
     Coordinates (X,Y,Z):    2.850000E+00    0.000000E+00    1.041622E+00
     TEMPORAL STATISTIC: RUNNING AVERAGE
 149 ID: BP_Door
     QUANTITY: VELOCITY
     Coordinates (X,Y,Z):    2.850000E+00    0.000000E+00    1.090270E+00
     TEMPORAL STATISTIC: RUNNING AVERAGE
 150 ID: BP_Door
     QUANTITY: VELOCITY
     Coordinates (X,Y,Z):    2.850000E+00    0.000000E+00    1.138919E+00
     TEMPORAL STATISTIC: RUNNING AVERAGE
 151 ID: BP_Door
     QUANTITY: VELOCITY
     Coordinates (X,Y,Z):    2.850000E+00    0.000000E+00    1.187568E+00
     TEMPORAL STATISTIC: RUNNING AVERAGE
 152 ID: BP_Door
     QUANTITY: VELOCITY
     Coordinates (X,Y,Z):    2.850000E+00    0.000000E+00    1.236216E+00
     TEMPORAL STATISTIC: RUNNING AVERAGE
 153 ID: BP_Door
     QUANTITY: VELOCITY
     Coordinates (X,Y,Z):    2.850000E+00    0.000000E+00    1.284865E+00
     TEMPORAL STATISTIC: RUNNING AVERAGE
 154 ID: BP_Door
     QUANTITY: VELOCITY
     Coordinates (X,Y,Z):    2.850000E+00    0.000000E+00    1.333514E+00
     TEMPORAL STATISTIC: RUNNING AVERAGE
 155 ID: BP_Door
     QUANTITY: VELOCITY
     Coordinates (X,Y,Z):    2.850000E+00    0.000000E+00    1.382162E+00
     TEMPORAL STATISTIC: RUNNING AVERAGE
 156 ID: BP_Door
     QUANTITY: VELOCITY
     Coordinates (X,Y,Z):    2.850000E+00    0.000000E+00    1.430811E+00
     TEMPORAL STATISTIC: RUNNING AVERAGE
 157 ID: BP_Door
     QUANTITY: VELOCITY
     Coordinates (X,Y,Z):    2.850000E+00    0.000000E+00    1.479459E+00
     TEMPORAL STATISTIC: RUNNING AVERAGE
 158 ID: BP_Door
     QUANTITY: VELOCITY
     Coordinates (X,Y,Z):    2.850000E+00    0.000000E+00    1.528108E+00
     TEMPORAL STATISTIC: RUNNING AVERAGE
 159 ID: BP_Door
     QUANTITY: VELOCITY
     Coordinates (X,Y,Z):    2.850000E+00    0.000000E+00    1.576757E+00
     TEMPORAL STATISTIC: RUNNING AVERAGE
 160 ID: BP_Door
     QUANTITY: VELOCITY
     Coordinates (X,Y,Z):    2.850000E+00    0.000000E+00    1.625405E+00
     TEMPORAL STATISTIC: RUNNING AVERAGE
 161 ID: BP_Door
     QUANTITY: VELOCITY
     Coordinates (X,Y,Z):    2.850000E+00    0.000000E+00    1.674054E+00
     TEMPORAL STATISTIC: RUNNING AVERAGE
 162 ID: BP_Door
     QUANTITY: VELOCITY
     Coordinates (X,Y,Z):    2.850000E+00    0.000000E+00    1.722703E+00
     TEMPORAL STATISTIC: RUNNING AVERAGE
 163 ID: BP_Door
     QUANTITY: VELOCITY
     Coordinates (X,Y,Z):    2.850000E+00    0.000000E+00    1.771351E+00
     TEMPORAL STATISTIC: RUNNING AVERAGE
 164 ID: BP_Door
     QUANTITY: VELOCITY
     Coordinates (X,Y,Z):    2.850000E+00    0.000000E+00    1.820000E+00
     TEMPORAL STATISTIC: RUNNING AVERAGE
 165 ID: HGL Temp
     QUANTITY: UPPER TEMPERATURE
     Coordinates (X,Y,Z):    2.500000E+00    1.100000E+00    1.065000E+00
     TEMPORAL STATISTIC: TIME AVERAGE
 166 ID: HGL Height
     QUANTITY: LAYER HEIGHT
     Coordinates (X,Y,Z):    2.500000E+00    1.100000E+00    1.065000E+00
     TEMPORAL STATISTIC: TIME AVERAGE


 Slice File Information, Mesh     1

   1 Nodes:   0  36  15  15   0  22, Quantity: TEMPERATURE
   2 Nodes:   0  36  15  15   0  22, Quantity: VELOCITY
   3 Nodes:   0  36  15  15   0  22, Quantity: U-VELOCITY
   4 Nodes:   0  36  15  15   0  22, Quantity: V-VELOCITY
   5 Nodes:   0  36  15  15   0  22, Quantity: W-VELOCITY


 Radiation Model Information

   Number of control angles  104
   Time step increment         3
   Angle increment             5
   Theta band N_phi   Solid angle
     1:        4     0.120
     2:       12     0.114
     3:       16     0.127
     4:       20     0.120
     5:       20     0.120
     6:       16     0.127
     7:       12     0.114
     8:        4     0.120
   Using gray gas absorption.
   Mean beam length  1.000E-01 m



 Run Time Diagnostics

       Time Step       1   August  7, 2024  16:39:18
       Scaled Step Size:    0.108E+01 s, Scaled Total Time:       1.08 s
       Pressure Iterations: 1
       Maximum Velocity Error:  0.23E-02 on Mesh 1 at (28,28,18)
       Maximum Pressure Error:  0.45E+01 on Mesh 1 at (15,15,1)
       ---------------------------------------------------------------
       Max CFL number:  0.33E-01 at (15,15,1)
       Max divergence:  0.42E-01 at (15,15,1)
       Min divergence: -0.15E-05 at (26,2,21)
       Max VN number:   0.37E-01 at (28,25,18)
       Radiation Loss to Boundaries:         0.006 kW

       Time Step       2   August  7, 2024  16:39:18
       Scaled Step Size:    0.108E+01 s, Scaled Total Time:       2.16 s
       Pressure Iterations: 1
       Maximum Velocity Error:  0.97E-02 on Mesh 1 at (14,0,1)
       Maximum Pressure Error:  0.42E+03 on Mesh 1 at (15,14,1)
       ---------------------------------------------------------------
       Max CFL number:  0.51E-01 at (15,15,1)
       Max divergence:  0.14E+02 at (14,14,1)
       Min divergence: -0.15E-05 at (26,2,21)
       Max VN number:   0.38E-01 at (14,16,1)
       Total Heat Release Rate:             22.234 kW
       Radiation Loss to Boundaries:         0.006 kW

       Time Step       3   August  7, 2024  16:39:18
       Scaled Step Size:    0.413E+00 s, Scaled Total Time:       2.58 s
       Pressure Iterations: 1
       Maximum Velocity Error:  0.13E-01 on Mesh 1 at (14,0,1)
       Maximum Pressure Error:  0.64E+02 on Mesh 1 at (14,15,1)
       ---------------------------------------------------------------
       Max CFL number:  0.75E+00 at (14,15,1)
       Max divergence:  0.12E+02 at (15,14,1)
       Min divergence: -0.14E-05 at (26,2,21)
       Max VN number:   0.22E+00 at (14,14,1)
       Total Heat Release Rate:             33.636 kW
       Radiation Loss to Boundaries:        -1.460 kW
       No. of CLIP DT restrictions:  1

       Time Step       4   August  7, 2024  16:39:19
       Scaled Step Size:    0.454E+00 s, Scaled Total Time:       3.03 s
       Pressure Iterations: 1
       Maximum Velocity Error:  0.60E-02 on Mesh 1 at (14,0,1)
       Maximum Pressure Error:  0.99E+03 on Mesh 1 at (14,14,1)
       ---------------------------------------------------------------
       Max CFL number:  0.64E+00 at (14,15,1)
       Max divergence:  0.44E+01 at (16,14,1)
       Min divergence: -0.13E-05 at (26,2,21)
       Max VN number:   0.18E+00 at (14,14,1)
       Total Heat Release Rate:             36.774 kW
       Radiation Loss to Boundaries:       -14.110 kW

       Time Step       5   August  7, 2024  16:39:19
       Scaled Step Size:    0.500E+00 s, Scaled Total Time:       3.53 s
       Pressure Iterations: 1
       Maximum Velocity Error:  0.50E-02 on Mesh 1 at (28,0,1)
       Maximum Pressure Error:  0.21E+03 on Mesh 1 at (14,15,1)
       ---------------------------------------------------------------
       Max CFL number:  0.41E+00 at (14,15,2)
       Max divergence:  0.28E+01 at (14,15,2)
       Min divergence: -0.13E-05 at (26,2,21)
       Max VN number:   0.76E-01 at (14,15,2)
       Total Heat Release Rate:             36.173 kW
       Radiation Loss to Boundaries:       -20.490 kW

       Time Step       6   August  7, 2024  16:39:19
       Scaled Step Size:    0.550E+00 s, Scaled Total Time:       4.08 s
       Pressure Iterations: 1
       Maximum Velocity Error:  0.48E-02 on Mesh 1 at (28,28,2)
       Maximum Pressure Error:  0.90E+02 on Mesh 1 at (14,15,1)
       ---------------------------------------------------------------
       Max CFL number:  0.50E+00 at (14,15,2)
       Max divergence:  0.27E+01 at (14,15,2)
       Min divergence: -0.12E-05 at (35,3,17)
       Max VN number:   0.14E+00 at (14,15,2)
       Total Heat Release Rate:             32.964 kW
       Radiation Loss to Boundaries:       -17.594 kW

       Time Step       7   August  7, 2024  16:39:19
       Scaled Step Size:    0.604E+00 s, Scaled Total Time:       4.69 s
       Pressure Iterations: 1
       Maximum Velocity Error:  0.39E-02 on Mesh 1 at (28,28,3)
       Maximum Pressure Error:  0.14E+03 on Mesh 1 at (14,15,1)
       ---------------------------------------------------------------
       Max CFL number:  0.76E+00 at (14,15,1)
       Max divergence:  0.39E+01 at (14,14,1)
       Min divergence: -0.75E+00 at (15,14,1)
       Max VN number:   0.24E+00 at (14,15,2)
       Total Heat Release Rate:             31.492 kW
       Radiation Loss to Boundaries:       -11.789 kW

       Time Step       8   August  7, 2024  16:39:19
       Scaled Step Size:    0.489E+00 s, Scaled Total Time:       5.17 s
       Pressure Iterations: 1
       Maximum Velocity Error:  0.40E-02 on Mesh 1 at (1,28,12)
       Maximum Pressure Error:  0.27E+03 on Mesh 1 at (14,15,1)
       ---------------------------------------------------------------
       Max CFL number:  0.85E+00 at (14,15,1)
       Max divergence:  0.73E+01 at (15,15,1)
       Min divergence: -0.12E-05 at (35,3,17)
       Max VN number:   0.24E+00 at (14,15,2)
       Total Heat Release Rate:             46.037 kW
       Radiation Loss to Boundaries:       -15.500 kW

       Time Step       9   August  7, 2024  16:39:19
       Scaled Step Size:    0.375E+00 s, Scaled Total Time:       5.55 s
       Pressure Iterations: 1
       Maximum Velocity Error:  0.45E-02 on Mesh 1 at (11,16,22)
       Maximum Pressure Error:  0.26E+03 on Mesh 1 at (15,15,1)
       ---------------------------------------------------------------
       Max CFL number:  0.81E+00 at (14,15,2)
       Max divergence:  0.59E+01 at (14,14,1)
       Min divergence: -0.12E-05 at (35,3,17)
       Max VN number:   0.25E+00 at (14,15,3)
       Total Heat Release Rate:             53.418 kW
       Radiation Loss to Boundaries:       -17.759 kW

       Time Step      10   August  7, 2024  16:39:19
       Scaled Step Size:    0.328E+00 s, Scaled Total Time:       5.88 s
       Pressure Iterations: 1
       Maximum Velocity Error:  0.54E-02 on Mesh 1 at (12,14,22)
       Maximum Pressure Error:  0.13E+03 on Mesh 1 at (15,15,1)
       ---------------------------------------------------------------
       Max CFL number:  0.86E+00 at (14,15,2)
       Max divergence:  0.67E+01 at (15,15,1)
       Min divergence: -0.12E-05 at (35,3,17)
       Max VN number:   0.28E+00 at (14,15,3)
       Total Heat Release Rate:             58.463 kW
       Radiation Loss to Boundaries:       -17.682 kW

       Time Step      20   August  7, 2024  16:39:20
       Scaled Step Size:    0.168E+00 s, Scaled Total Time:       8.05 s
       Pressure Iterations: 1
       Maximum Velocity Error:  0.65E-02 on Mesh 1 at (11,1,22)
       Maximum Pressure Error:  0.16E+03 on Mesh 1 at (15,15,7)
       ---------------------------------------------------------------
       Max CFL number:  0.93E+00 at (15,14,7)
       Max divergence:  0.80E+01 at (15,15,1)
       Min divergence: -0.21E+01 at (15,14,7)
       Max VN number:   0.29E+00 at (15,15,6)
       Total Heat Release Rate:             53.122 kW
       Radiation Loss to Boundaries:        -8.211 kW

       Time Step      30   August  7, 2024  16:39:21
       Scaled Step Size:    0.130E+00 s, Scaled Total Time:       9.43 s
       Pressure Iterations: 1
       Maximum Velocity Error:  0.39E-02 on Mesh 1 at (15,14,22)
       Maximum Pressure Error:  0.27E+03 on Mesh 1 at (15,15,11)
       ---------------------------------------------------------------
       Max CFL number:  0.89E+00 at (15,15,10)
       Max divergence:  0.79E+01 at (14,15,1)
       Min divergence: -0.26E+01 at (15,14,11)
       Max VN number:   0.30E+00 at (15,15,10)
       Total Heat Release Rate:             45.355 kW
       Radiation Loss to Boundaries:        -6.446 kW

       Time Step      40   August  7, 2024  16:39:22
       Scaled Step Size:    0.130E+00 s, Scaled Total Time:      10.73 s
       Pressure Iterations: 1
       Maximum Velocity Error:  0.78E-02 on Mesh 1 at (15,14,22)
       Maximum Pressure Error:  0.27E+03 on Mesh 1 at (15,15,15)
       ---------------------------------------------------------------
       Max CFL number:  0.97E+00 at (14,15,14)
       Max divergence:  0.78E+01 at (14,14,1)
       Min divergence: -0.36E+01 at (15,14,15)
       Max VN number:   0.32E+00 at (15,15,15)
       Total Heat Release Rate:             49.500 kW
       Radiation Loss to Boundaries:        -8.284 kW

       Time Step      50   August  7, 2024  16:39:23
       Scaled Step Size:    0.117E+00 s, Scaled Total Time:      11.95 s
       Pressure Iterations: 1
       Maximum Velocity Error:  0.37E-01 on Mesh 1 at (15,15,22)
       Maximum Pressure Error:  0.11E+03 on Mesh 1 at (14,14,19)
       ---------------------------------------------------------------
       Max CFL number:  0.90E+00 at (14,15,18)
       Max divergence:  0.78E+01 at (14,14,1)
       Min divergence: -0.22E+01 at (15,14,19)
       Max VN number:   0.28E+00 at (14,15,17)
       Total Heat Release Rate:             48.549 kW
       Radiation Loss to Boundaries:        -8.049 kW

       Time Step      60   August  7, 2024  16:39:24
       Scaled Step Size:    0.128E+00 s, Scaled Total Time:      13.13 s
       Pressure Iterations: 2
       Maximum Velocity Error:  0.38E-01 on Mesh 1 at (13,14,22)
       Maximum Pressure Error:  0.53E+02 on Mesh 1 at (15,16,19)
       ---------------------------------------------------------------
       Max CFL number:  0.96E+00 at (14,15,22)
       Max divergence:  0.77E+01 at (14,14,1)
       Min divergence: -0.13E+01 at (15,14,7)
       Max VN number:   0.31E+00 at (14,15,21)
       Total Heat Release Rate:             46.225 kW
       Radiation Loss to Boundaries:        -7.604 kW

       Time Step      70   August  7, 2024  16:39:25
       Scaled Step Size:    0.128E+00 s, Scaled Total Time:      14.42 s
       Pressure Iterations: 2
       Maximum Velocity Error:  0.18E-01 on Mesh 1 at (17,13,22)
       Maximum Pressure Error:  0.72E+02 on Mesh 1 at (16,14,17)
       ---------------------------------------------------------------
       Max CFL number:  0.82E+00 at (14,15,20)
       Max divergence:  0.75E+01 at (14,14,1)
       Min divergence: -0.16E+01 at (15,14,6)
       Max VN number:   0.36E+00 at (14,12,22)
       Total Heat Release Rate:             46.600 kW
       Radiation Loss to Boundaries:        -7.563 kW

       Time Step      80   August  7, 2024  16:39:26
       Scaled Step Size:    0.141E+00 s, Scaled Total Time:      15.80 s
       Pressure Iterations: 2
       Maximum Velocity Error:  0.19E-01 on Mesh 1 at (14,15,22)
       Maximum Pressure Error:  0.47E+02 on Mesh 1 at (16,14,8)
       ---------------------------------------------------------------
       Max CFL number:  0.83E+00 at (14,15,19)
       Max divergence:  0.73E+01 at (14,14,1)
       Min divergence: -0.16E+01 at (15,14,8)
       Max VN number:   0.46E+00 at (12,18,22)
       Total Heat Release Rate:             46.729 kW
       Radiation Loss to Boundaries:        -7.670 kW

       Time Step      90   August  7, 2024  16:39:27
       Scaled Step Size:    0.171E+00 s, Scaled Total Time:      17.36 s
       Pressure Iterations: 2
       Maximum Velocity Error:  0.23E-01 on Mesh 1 at (14,14,22)
       Maximum Pressure Error:  0.92E+02 on Mesh 1 at (16,14,10)
       ---------------------------------------------------------------
       Max CFL number:  0.92E+00 at (16,15,8)
       Max divergence:  0.72E+01 at (14,15,1)
       Min divergence: -0.12E+01 at (15,14,8)
       Max VN number:   0.53E+00 at (15,12,22)
       Total Heat Release Rate:             46.984 kW
       Radiation Loss to Boundaries:        -7.965 kW

       Time Step     100   August  7, 2024  16:39:28
       Scaled Step Size:    0.152E+00 s, Scaled Total Time:      18.97 s
       Pressure Iterations: 2
       Maximum Velocity Error:  0.15E-01 on Mesh 1 at (16,24,22)
       Maximum Pressure Error:  0.11E+03 on Mesh 1 at (16,14,14)
       ---------------------------------------------------------------
       Max CFL number:  0.87E+00 at (16,15,11)
       Max divergence:  0.73E+01 at (14,15,1)
       Min divergence: -0.16E+01 at (14,15,6)
       Max VN number:   0.55E+00 at (14,7,22)
       Total Heat Release Rate:             47.722 kW
       Radiation Loss to Boundaries:        -8.094 kW

       Time Step     200   August  7, 2024  16:39:38
       Scaled Step Size:    0.176E+00 s, Scaled Total Time:      35.85 s
       Pressure Iterations: 1
       Maximum Velocity Error:  0.36E-01 on Mesh 1 at (16,14,22)
       Maximum Pressure Error:  0.10E+02 on Mesh 1 at (14,15,9)
       ---------------------------------------------------------------
       Max CFL number:  0.92E+00 at (14,15,20)
       Max divergence:  0.77E+01 at (14,15,1)
       Min divergence: -0.16E+01 at (15,15,9)
       Max VN number:   0.35E+00 at (2,24,22)
       Total Heat Release Rate:             47.419 kW
       Radiation Loss to Boundaries:        -8.017 kW

       Time Step     300   August  7, 2024  16:39:47
       Scaled Step Size:    0.137E+00 s, Scaled Total Time:      51.28 s
       Pressure Iterations: 2
       Maximum Velocity Error:  0.44E-01 on Mesh 1 at (14,15,22)
       Maximum Pressure Error:  0.63E+02 on Mesh 1 at (14,15,16)
       ---------------------------------------------------------------
       Max CFL number:  0.84E+00 at (14,15,20)
       Max divergence:  0.77E+01 at (14,14,1)
       Min divergence: -0.20E+01 at (15,14,6)
       Max VN number:   0.28E+00 at (1,5,15)
       Total Heat Release Rate:             46.562 kW
       Radiation Loss to Boundaries:        -7.743 kW

       Time Step     400   August  7, 2024  16:39:57
       Scaled Step Size:    0.153E+00 s, Scaled Total Time:      67.14 s
       Pressure Iterations: 2
       Maximum Velocity Error:  0.14E-01 on Mesh 1 at (15,14,22)
       Maximum Pressure Error:  0.11E+03 on Mesh 1 at (16,15,17)
       ---------------------------------------------------------------
       Max CFL number:  0.89E+00 at (16,15,16)
       Max divergence:  0.81E+01 at (14,14,1)
       Min divergence: -0.24E+01 at (15,14,11)
       Max VN number:   0.45E+00 at (16,4,22)
       Total Heat Release Rate:             47.804 kW
       Radiation Loss to Boundaries:        -8.076 kW

       Time Step     500   August  7, 2024  16:40:06
       Scaled Step Size:    0.176E+00 s, Scaled Total Time:      83.82 s
       Pressure Iterations: 2
       Maximum Velocity Error:  0.29E-01 on Mesh 1 at (15,16,22)
       Maximum Pressure Error:  0.12E+03 on Mesh 1 at (16,15,10)
       ---------------------------------------------------------------
       Max CFL number:  0.84E+00 at (15,15,17)
       Max divergence:  0.77E+01 at (14,14,1)
       Min divergence: -0.26E+01 at (14,15,6)
       Max VN number:   0.39E+00 at (16,27,22)
       Total Heat Release Rate:             48.003 kW
       Radiation Loss to Boundaries:        -8.795 kW

       Time Step     599   August  7, 2024  16:40:16
       Scaled Step Size:    0.391E-01 s, Scaled Total Time:     100.00 s
       Pressure Iterations: 1
       Maximum Velocity Error:  0.14E-01 on Mesh 1 at (15,15,22)
       Maximum Pressure Error:  0.10E+04 on Mesh 1 at (15,15,1)
       ---------------------------------------------------------------
       Max CFL number:  0.21E+00 at (15,14,9)
       Max divergence:  0.84E+01 at (15,14,1)
       Min divergence: -0.29E+01 at (15,14,5)
       Max VN number:   0.83E-01 at (2,28,17)
       Total Heat Release Rate:             51.582 kW
       Radiation Loss to Boundaries:        -7.832 kW



 Time Stepping Wall Clock Time (s):       57.944
 Total Elapsed Wall Clock Time (s):       60.392

STOP: FDS completed successfully (CHID: Steckler)
